# File generated by Flopy version 3.5.0 on 11/06/2024 at 09:56:28.
BEGIN options
  PRINT_OPTION  all
END options

BEGIN nonlinear
  OUTER_DVCLOSE  1.00000000E-05
  OUTER_MAXIMUM  500
  UNDER_RELAXATION  none
END nonlinear

BEGIN linear
  INNER_MAXIMUM  200
  INNER_DVCLOSE  1.00000000E-05
  inner_rclose  1.00000000E-06
  LINEAR_ACCELERATION  cg
  RELAXATION_FACTOR       0.97000000
  SCALING_METHOD  none
  REORDERING_METHOD  none
END linear

