# File generated by Flopy version 3.5.0 on 11/06/2024 at 09:56:29.
BEGIN options
  TS6  FILEIN  gwf.riv.ts
  TS6  FILEIN  gwf.riv0.ts
  TS6  FILEIN  gwf.riv1.ts
END options

BEGIN dimensions
  MAXBOUND  87
END dimensions

BEGIN period  1
  1 662 tsd-4b7ff5e3b91e 5.60000000E+01 5.00000000E-01
  1 1023 tsd-4b7ff5e3b91e 5.60000000E+01 5.00000000E-01
  1 1085 tsd-4b7ff5e3b91e 5.60000000E+01 5.00000000E-01
  1 1228 tsd-4b7ff5e3b91e 5.60000000E+01 5.00000000E-01
  1 1233 tsd-4b7ff5e3b91e 5.60000000E+01 5.00000000E-01
  1 1301 tsd-4b7ff5e3b91e 5.60000000E+01 5.00000000E-01
  1 1404 tsd-4b7ff5e3b91e 5.60000000E+01 5.00000000E-01
  1 1413 tsd-4b7ff5e3b91e 5.60000000E+01 5.00000000E-01
  1 1529 tsd-4b7ff5e3b91e 5.60000000E+01 5.00000000E-01
  1 1559 tsd-4b7ff5e3b91e 5.60000000E+01 5.00000000E-01
  1 1676 tsd-4b7ff5e3b91e 5.60000000E+01 5.00000000E-01
  1 1746 tsd-4b7ff5e3b91e 5.60000000E+01 5.00000000E-01
  1 1773 tsd-4b7ff5e3b91e 5.60000000E+01 5.00000000E-01
  1 1776 tsd-4b7ff5e3b91e 5.60000000E+01 5.00000000E-01
  1 1785 tsd-4b7ff5e3b91e 5.60000000E+01 5.00000000E-01
  1 1786 tsd-4b7ff5e3b91e 5.60000000E+01 5.00000000E-01
  1 1788 tsd-4b7ff5e3b91e 5.60000000E+01 5.00000000E-01
  1 1820 tsd-4b7ff5e3b91e 5.60000000E+01 5.00000000E-01
  1 1821 tsd-4b7ff5e3b91e 5.60000000E+01 5.00000000E-01
  1 1921 tsd-4b7ff5e3b91e 5.60000000E+01 5.00000000E-01
  1 2054 tsd-4b7ff5e3b91e 5.60000000E+01 5.00000000E-01
  1 2117 tsd-4b7ff5e3b91e 5.60000000E+01 5.00000000E-01
  1 2214 tsd-4b7ff5e3b91e 5.60000000E+01 5.00000000E-01
  1 2217 tsd-4b7ff5e3b91e 5.60000000E+01 5.00000000E-01
  1 2227 tsd-4b7ff5e3b91e 5.60000000E+01 5.00000000E-01
  1 2230 tsd-4b7ff5e3b91e 5.60000000E+01 5.00000000E-01
  1 2231 tsd-4b7ff5e3b91e 5.60000000E+01 5.00000000E-01
  1 2237 tsd-4b7ff5e3b91e 5.60000000E+01 5.00000000E-01
  1 2270 tsd-4b7ff5e3b91e 5.60000000E+01 5.00000000E-01
  1 2274 tsd-4b7ff5e3b91e 5.60000000E+01 5.00000000E-01
  1 2276 tsd-4b7ff5e3b91e 5.60000000E+01 5.00000000E-01
  1 2280 tsd-4b7ff5e3b91e 5.60000000E+01 5.00000000E-01
  1 2281 tsd-4b7ff5e3b91e 5.60000000E+01 5.00000000E-01
  1 2283 tsd-4b7ff5e3b91e 5.60000000E+01 5.00000000E-01
  1 13 tsd-c1bece9d928b 5.60000000E+01 1.00000000E+00
  1 19 tsd-c1bece9d928b 5.60000000E+01 1.00000000E+00
  1 228 tsd-c1bece9d928b 5.60000000E+01 1.00000000E+00
  1 655 tsd-c1bece9d928b 5.60000000E+01 1.00000000E+00
  1 783 tsd-c1bece9d928b 5.60000000E+01 1.00000000E+00
  1 911 tsd-c1bece9d928b 5.60000000E+01 1.00000000E+00
  1 1996 tsd-c1bece9d928b 5.60000000E+01 1.00000000E+00
  1 2468 tsd-c1bece9d928b 5.60000000E+01 1.00000000E+00
  1 2472 tsd-c1bece9d928b 5.60000000E+01 1.00000000E+00
  1 2479 tsd-c1bece9d928b 5.60000000E+01 1.00000000E+00
  1 2483 tsd-c1bece9d928b 5.60000000E+01 1.00000000E+00
  1 3068 tsd-c1bece9d928b 5.60000000E+01 1.00000000E+00
  1 3070 tsd-c1bece9d928b 5.60000000E+01 1.00000000E+00
  1 3071 tsd-c1bece9d928b 5.60000000E+01 1.00000000E+00
  1 216 tsd-c1bece9d928b 5.60000000E+01 1.00000000E+00
  1 764 tsd-c1bece9d928b 5.60000000E+01 1.00000000E+00
  1 797 tsd-c1bece9d928b 5.60000000E+01 1.00000000E+00
  1 810 tsd-c1bece9d928b 5.60000000E+01 1.00000000E+00
  1 1204 tsd-c1bece9d928b 5.60000000E+01 1.00000000E+00
  1 2469 tsd-c1bece9d928b 5.60000000E+01 1.00000000E+00
  1 2474 tsd-c1bece9d928b 5.60000000E+01 1.00000000E+00
  1 3060 tsd-c1bece9d928b 5.60000000E+01 1.00000000E+00
  1 3062 tsd-c1bece9d928b 5.60000000E+01 1.00000000E+00
  1 175 tsd-8528e7240dd7 5.60000000E+01 1.00000000E+00
  1 210 tsd-8528e7240dd7 5.60000000E+01 1.00000000E+00
  1 212 tsd-8528e7240dd7 5.60000000E+01 1.00000000E+00
  1 1864 tsd-8528e7240dd7 5.60000000E+01 1.00000000E+00
  1 3058 tsd-8528e7240dd7 5.60000000E+01 1.00000000E+00
  1 3067 tsd-8528e7240dd7 5.60000000E+01 1.00000000E+00
  1 3622 tsd-8528e7240dd7 5.60000000E+01 1.00000000E+00
  1 3626 tsd-8528e7240dd7 5.60000000E+01 1.00000000E+00
  1 3627 tsd-8528e7240dd7 5.60000000E+01 1.00000000E+00
  1 3837 tsd-8528e7240dd7 5.60000000E+01 1.00000000E+00
  1 3839 tsd-8528e7240dd7 5.60000000E+01 1.00000000E+00
  1 4020 tsd-8528e7240dd7 5.60000000E+01 1.00000000E+00
  1 4023 tsd-8528e7240dd7 5.60000000E+01 1.00000000E+00
  1 4025 tsd-8528e7240dd7 5.60000000E+01 1.00000000E+00
  1 4026 tsd-8528e7240dd7 5.60000000E+01 1.00000000E+00
  1 4091 tsd-8528e7240dd7 5.60000000E+01 1.00000000E+00
  1 4093 tsd-8528e7240dd7 5.60000000E+01 1.00000000E+00
  1 4095 tsd-8528e7240dd7 5.60000000E+01 1.00000000E+00
  1 4096 tsd-8528e7240dd7 5.60000000E+01 1.00000000E+00
  1 4123 tsd-8528e7240dd7 5.60000000E+01 1.00000000E+00
  1 4131 tsd-8528e7240dd7 5.60000000E+01 1.00000000E+00
  1 4132 tsd-8528e7240dd7 5.60000000E+01 1.00000000E+00
  1 4133 tsd-8528e7240dd7 5.60000000E+01 1.00000000E+00
  1 4137 tsd-8528e7240dd7 5.60000000E+01 1.00000000E+00
  1 4150 tsd-8528e7240dd7 5.60000000E+01 1.00000000E+00
  1 4153 tsd-8528e7240dd7 5.60000000E+01 1.00000000E+00
  1 4154 tsd-8528e7240dd7 5.60000000E+01 1.00000000E+00
  1 4163 tsd-8528e7240dd7 5.60000000E+01 1.00000000E+00
  1 4166 tsd-8528e7240dd7 5.60000000E+01 1.00000000E+00
  1 4169 tsd-8528e7240dd7 5.60000000E+01 1.00000000E+00
END period  1

BEGIN period  2
  1 662 tsd-4b7ff5e3b91e 5.60000000E+01 5.00000000E-01
  1 1023 tsd-4b7ff5e3b91e 5.60000000E+01 5.00000000E-01
  1 1085 tsd-4b7ff5e3b91e 5.60000000E+01 5.00000000E-01
  1 1228 tsd-4b7ff5e3b91e 5.60000000E+01 5.00000000E-01
  1 1233 tsd-4b7ff5e3b91e 5.60000000E+01 5.00000000E-01
  1 1301 tsd-4b7ff5e3b91e 5.60000000E+01 5.00000000E-01
  1 1404 tsd-4b7ff5e3b91e 5.60000000E+01 5.00000000E-01
  1 1413 tsd-4b7ff5e3b91e 5.60000000E+01 5.00000000E-01
  1 1529 tsd-4b7ff5e3b91e 5.60000000E+01 5.00000000E-01
  1 1559 tsd-4b7ff5e3b91e 5.60000000E+01 5.00000000E-01
  1 1676 tsd-4b7ff5e3b91e 5.60000000E+01 5.00000000E-01
  1 1746 tsd-4b7ff5e3b91e 5.60000000E+01 5.00000000E-01
  1 1773 tsd-4b7ff5e3b91e 5.60000000E+01 5.00000000E-01
  1 1776 tsd-4b7ff5e3b91e 5.60000000E+01 5.00000000E-01
  1 1785 tsd-4b7ff5e3b91e 5.60000000E+01 5.00000000E-01
  1 1786 tsd-4b7ff5e3b91e 5.60000000E+01 5.00000000E-01
  1 1788 tsd-4b7ff5e3b91e 5.60000000E+01 5.00000000E-01
  1 1820 tsd-4b7ff5e3b91e 5.60000000E+01 5.00000000E-01
  1 1821 tsd-4b7ff5e3b91e 5.60000000E+01 5.00000000E-01
  1 1921 tsd-4b7ff5e3b91e 5.60000000E+01 5.00000000E-01
  1 2054 tsd-4b7ff5e3b91e 5.60000000E+01 5.00000000E-01
  1 2117 tsd-4b7ff5e3b91e 5.60000000E+01 5.00000000E-01
  1 2214 tsd-4b7ff5e3b91e 5.60000000E+01 5.00000000E-01
  1 2217 tsd-4b7ff5e3b91e 5.60000000E+01 5.00000000E-01
  1 2227 tsd-4b7ff5e3b91e 5.60000000E+01 5.00000000E-01
  1 2230 tsd-4b7ff5e3b91e 5.60000000E+01 5.00000000E-01
  1 2231 tsd-4b7ff5e3b91e 5.60000000E+01 5.00000000E-01
  1 2237 tsd-4b7ff5e3b91e 5.60000000E+01 5.00000000E-01
  1 2270 tsd-4b7ff5e3b91e 5.60000000E+01 5.00000000E-01
  1 2274 tsd-4b7ff5e3b91e 5.60000000E+01 5.00000000E-01
  1 2276 tsd-4b7ff5e3b91e 5.60000000E+01 5.00000000E-01
  1 2280 tsd-4b7ff5e3b91e 5.60000000E+01 5.00000000E-01
  1 2281 tsd-4b7ff5e3b91e 5.60000000E+01 5.00000000E-01
  1 2283 tsd-4b7ff5e3b91e 5.60000000E+01 5.00000000E-01
  1 13 tsd-c1bece9d928b 5.60000000E+01 1.00000000E+00
  1 19 tsd-c1bece9d928b 5.60000000E+01 1.00000000E+00
  1 228 tsd-c1bece9d928b 5.60000000E+01 1.00000000E+00
  1 655 tsd-c1bece9d928b 5.60000000E+01 1.00000000E+00
  1 783 tsd-c1bece9d928b 5.60000000E+01 1.00000000E+00
  1 911 tsd-c1bece9d928b 5.60000000E+01 1.00000000E+00
  1 1996 tsd-c1bece9d928b 5.60000000E+01 1.00000000E+00
  1 2468 tsd-c1bece9d928b 5.60000000E+01 1.00000000E+00
  1 2472 tsd-c1bece9d928b 5.60000000E+01 1.00000000E+00
  1 2479 tsd-c1bece9d928b 5.60000000E+01 1.00000000E+00
  1 2483 tsd-c1bece9d928b 5.60000000E+01 1.00000000E+00
  1 3068 tsd-c1bece9d928b 5.60000000E+01 1.00000000E+00
  1 3070 tsd-c1bece9d928b 5.60000000E+01 1.00000000E+00
  1 3071 tsd-c1bece9d928b 5.60000000E+01 1.00000000E+00
  1 216 tsd-c1bece9d928b 5.60000000E+01 1.00000000E+00
  1 764 tsd-c1bece9d928b 5.60000000E+01 1.00000000E+00
  1 797 tsd-c1bece9d928b 5.60000000E+01 1.00000000E+00
  1 810 tsd-c1bece9d928b 5.60000000E+01 1.00000000E+00
  1 1204 tsd-c1bece9d928b 5.60000000E+01 1.00000000E+00
  1 2469 tsd-c1bece9d928b 5.60000000E+01 1.00000000E+00
  1 2474 tsd-c1bece9d928b 5.60000000E+01 1.00000000E+00
  1 3060 tsd-c1bece9d928b 5.60000000E+01 1.00000000E+00
  1 3062 tsd-c1bece9d928b 5.60000000E+01 1.00000000E+00
  1 175 tsd-8528e7240dd7 5.60000000E+01 1.00000000E+00
  1 210 tsd-8528e7240dd7 5.60000000E+01 1.00000000E+00
  1 212 tsd-8528e7240dd7 5.60000000E+01 1.00000000E+00
  1 1864 tsd-8528e7240dd7 5.60000000E+01 1.00000000E+00
  1 3058 tsd-8528e7240dd7 5.60000000E+01 1.00000000E+00
  1 3067 tsd-8528e7240dd7 5.60000000E+01 1.00000000E+00
  1 3622 tsd-8528e7240dd7 5.60000000E+01 1.00000000E+00
  1 3626 tsd-8528e7240dd7 5.60000000E+01 1.00000000E+00
  1 3627 tsd-8528e7240dd7 5.60000000E+01 1.00000000E+00
  1 3837 tsd-8528e7240dd7 5.60000000E+01 1.00000000E+00
  1 3839 tsd-8528e7240dd7 5.60000000E+01 1.00000000E+00
  1 4020 tsd-8528e7240dd7 5.60000000E+01 1.00000000E+00
  1 4023 tsd-8528e7240dd7 5.60000000E+01 1.00000000E+00
  1 4025 tsd-8528e7240dd7 5.60000000E+01 1.00000000E+00
  1 4026 tsd-8528e7240dd7 5.60000000E+01 1.00000000E+00
  1 4091 tsd-8528e7240dd7 5.60000000E+01 1.00000000E+00
  1 4093 tsd-8528e7240dd7 5.60000000E+01 1.00000000E+00
  1 4095 tsd-8528e7240dd7 5.60000000E+01 1.00000000E+00
  1 4096 tsd-8528e7240dd7 5.60000000E+01 1.00000000E+00
  1 4123 tsd-8528e7240dd7 5.60000000E+01 1.00000000E+00
  1 4131 tsd-8528e7240dd7 5.60000000E+01 1.00000000E+00
  1 4132 tsd-8528e7240dd7 5.60000000E+01 1.00000000E+00
  1 4133 tsd-8528e7240dd7 5.60000000E+01 1.00000000E+00
  1 4137 tsd-8528e7240dd7 5.60000000E+01 1.00000000E+00
  1 4150 tsd-8528e7240dd7 5.60000000E+01 1.00000000E+00
  1 4153 tsd-8528e7240dd7 5.60000000E+01 1.00000000E+00
  1 4154 tsd-8528e7240dd7 5.60000000E+01 1.00000000E+00
  1 4163 tsd-8528e7240dd7 5.60000000E+01 1.00000000E+00
  1 4166 tsd-8528e7240dd7 5.60000000E+01 1.00000000E+00
  1 4169 tsd-8528e7240dd7 5.60000000E+01 1.00000000E+00
END period  2

BEGIN period  3
  1 662 tsd-4b7ff5e3b91e 5.60000000E+01 5.00000000E-01
  1 1023 tsd-4b7ff5e3b91e 5.60000000E+01 5.00000000E-01
  1 1085 tsd-4b7ff5e3b91e 5.60000000E+01 5.00000000E-01
  1 1228 tsd-4b7ff5e3b91e 5.60000000E+01 5.00000000E-01
  1 1233 tsd-4b7ff5e3b91e 5.60000000E+01 5.00000000E-01
  1 1301 tsd-4b7ff5e3b91e 5.60000000E+01 5.00000000E-01
  1 1404 tsd-4b7ff5e3b91e 5.60000000E+01 5.00000000E-01
  1 1413 tsd-4b7ff5e3b91e 5.60000000E+01 5.00000000E-01
  1 1529 tsd-4b7ff5e3b91e 5.60000000E+01 5.00000000E-01
  1 1559 tsd-4b7ff5e3b91e 5.60000000E+01 5.00000000E-01
  1 1676 tsd-4b7ff5e3b91e 5.60000000E+01 5.00000000E-01
  1 1746 tsd-4b7ff5e3b91e 5.60000000E+01 5.00000000E-01
  1 1773 tsd-4b7ff5e3b91e 5.60000000E+01 5.00000000E-01
  1 1776 tsd-4b7ff5e3b91e 5.60000000E+01 5.00000000E-01
  1 1785 tsd-4b7ff5e3b91e 5.60000000E+01 5.00000000E-01
  1 1786 tsd-4b7ff5e3b91e 5.60000000E+01 5.00000000E-01
  1 1788 tsd-4b7ff5e3b91e 5.60000000E+01 5.00000000E-01
  1 1820 tsd-4b7ff5e3b91e 5.60000000E+01 5.00000000E-01
  1 1821 tsd-4b7ff5e3b91e 5.60000000E+01 5.00000000E-01
  1 1921 tsd-4b7ff5e3b91e 5.60000000E+01 5.00000000E-01
  1 2054 tsd-4b7ff5e3b91e 5.60000000E+01 5.00000000E-01
  1 2117 tsd-4b7ff5e3b91e 5.60000000E+01 5.00000000E-01
  1 2214 tsd-4b7ff5e3b91e 5.60000000E+01 5.00000000E-01
  1 2217 tsd-4b7ff5e3b91e 5.60000000E+01 5.00000000E-01
  1 2227 tsd-4b7ff5e3b91e 5.60000000E+01 5.00000000E-01
  1 2230 tsd-4b7ff5e3b91e 5.60000000E+01 5.00000000E-01
  1 2231 tsd-4b7ff5e3b91e 5.60000000E+01 5.00000000E-01
  1 2237 tsd-4b7ff5e3b91e 5.60000000E+01 5.00000000E-01
  1 2270 tsd-4b7ff5e3b91e 5.60000000E+01 5.00000000E-01
  1 2274 tsd-4b7ff5e3b91e 5.60000000E+01 5.00000000E-01
  1 2276 tsd-4b7ff5e3b91e 5.60000000E+01 5.00000000E-01
  1 2280 tsd-4b7ff5e3b91e 5.60000000E+01 5.00000000E-01
  1 2281 tsd-4b7ff5e3b91e 5.60000000E+01 5.00000000E-01
  1 2283 tsd-4b7ff5e3b91e 5.60000000E+01 5.00000000E-01
  1 13 tsd-c1bece9d928b 5.60000000E+01 1.00000000E+00
  1 19 tsd-c1bece9d928b 5.60000000E+01 1.00000000E+00
  1 228 tsd-c1bece9d928b 5.60000000E+01 1.00000000E+00
  1 655 tsd-c1bece9d928b 5.60000000E+01 1.00000000E+00
  1 783 tsd-c1bece9d928b 5.60000000E+01 1.00000000E+00
  1 911 tsd-c1bece9d928b 5.60000000E+01 1.00000000E+00
  1 1996 tsd-c1bece9d928b 5.60000000E+01 1.00000000E+00
  1 2468 tsd-c1bece9d928b 5.60000000E+01 1.00000000E+00
  1 2472 tsd-c1bece9d928b 5.60000000E+01 1.00000000E+00
  1 2479 tsd-c1bece9d928b 5.60000000E+01 1.00000000E+00
  1 2483 tsd-c1bece9d928b 5.60000000E+01 1.00000000E+00
  1 3068 tsd-c1bece9d928b 5.60000000E+01 1.00000000E+00
  1 3070 tsd-c1bece9d928b 5.60000000E+01 1.00000000E+00
  1 3071 tsd-c1bece9d928b 5.60000000E+01 1.00000000E+00
  1 216 tsd-c1bece9d928b 5.60000000E+01 1.00000000E+00
  1 764 tsd-c1bece9d928b 5.60000000E+01 1.00000000E+00
  1 797 tsd-c1bece9d928b 5.60000000E+01 1.00000000E+00
  1 810 tsd-c1bece9d928b 5.60000000E+01 1.00000000E+00
  1 1204 tsd-c1bece9d928b 5.60000000E+01 1.00000000E+00
  1 2469 tsd-c1bece9d928b 5.60000000E+01 1.00000000E+00
  1 2474 tsd-c1bece9d928b 5.60000000E+01 1.00000000E+00
  1 3060 tsd-c1bece9d928b 5.60000000E+01 1.00000000E+00
  1 3062 tsd-c1bece9d928b 5.60000000E+01 1.00000000E+00
  1 175 tsd-8528e7240dd7 5.60000000E+01 1.00000000E+00
  1 210 tsd-8528e7240dd7 5.60000000E+01 1.00000000E+00
  1 212 tsd-8528e7240dd7 5.60000000E+01 1.00000000E+00
  1 1864 tsd-8528e7240dd7 5.60000000E+01 1.00000000E+00
  1 3058 tsd-8528e7240dd7 5.60000000E+01 1.00000000E+00
  1 3067 tsd-8528e7240dd7 5.60000000E+01 1.00000000E+00
  1 3622 tsd-8528e7240dd7 5.60000000E+01 1.00000000E+00
  1 3626 tsd-8528e7240dd7 5.60000000E+01 1.00000000E+00
  1 3627 tsd-8528e7240dd7 5.60000000E+01 1.00000000E+00
  1 3837 tsd-8528e7240dd7 5.60000000E+01 1.00000000E+00
  1 3839 tsd-8528e7240dd7 5.60000000E+01 1.00000000E+00
  1 4020 tsd-8528e7240dd7 5.60000000E+01 1.00000000E+00
  1 4023 tsd-8528e7240dd7 5.60000000E+01 1.00000000E+00
  1 4025 tsd-8528e7240dd7 5.60000000E+01 1.00000000E+00
  1 4026 tsd-8528e7240dd7 5.60000000E+01 1.00000000E+00
  1 4091 tsd-8528e7240dd7 5.60000000E+01 1.00000000E+00
  1 4093 tsd-8528e7240dd7 5.60000000E+01 1.00000000E+00
  1 4095 tsd-8528e7240dd7 5.60000000E+01 1.00000000E+00
  1 4096 tsd-8528e7240dd7 5.60000000E+01 1.00000000E+00
  1 4123 tsd-8528e7240dd7 5.60000000E+01 1.00000000E+00
  1 4131 tsd-8528e7240dd7 5.60000000E+01 1.00000000E+00
  1 4132 tsd-8528e7240dd7 5.60000000E+01 1.00000000E+00
  1 4133 tsd-8528e7240dd7 5.60000000E+01 1.00000000E+00
  1 4137 tsd-8528e7240dd7 5.60000000E+01 1.00000000E+00
  1 4150 tsd-8528e7240dd7 5.60000000E+01 1.00000000E+00
  1 4153 tsd-8528e7240dd7 5.60000000E+01 1.00000000E+00
  1 4154 tsd-8528e7240dd7 5.60000000E+01 1.00000000E+00
  1 4163 tsd-8528e7240dd7 5.60000000E+01 1.00000000E+00
  1 4166 tsd-8528e7240dd7 5.60000000E+01 1.00000000E+00
  1 4169 tsd-8528e7240dd7 5.60000000E+01 1.00000000E+00
END period  3

BEGIN period  4
  1 662 tsd-4b7ff5e3b91e 5.60000000E+01 5.00000000E-01
  1 1023 tsd-4b7ff5e3b91e 5.60000000E+01 5.00000000E-01
  1 1085 tsd-4b7ff5e3b91e 5.60000000E+01 5.00000000E-01
  1 1228 tsd-4b7ff5e3b91e 5.60000000E+01 5.00000000E-01
  1 1233 tsd-4b7ff5e3b91e 5.60000000E+01 5.00000000E-01
  1 1301 tsd-4b7ff5e3b91e 5.60000000E+01 5.00000000E-01
  1 1404 tsd-4b7ff5e3b91e 5.60000000E+01 5.00000000E-01
  1 1413 tsd-4b7ff5e3b91e 5.60000000E+01 5.00000000E-01
  1 1529 tsd-4b7ff5e3b91e 5.60000000E+01 5.00000000E-01
  1 1559 tsd-4b7ff5e3b91e 5.60000000E+01 5.00000000E-01
  1 1676 tsd-4b7ff5e3b91e 5.60000000E+01 5.00000000E-01
  1 1746 tsd-4b7ff5e3b91e 5.60000000E+01 5.00000000E-01
  1 1773 tsd-4b7ff5e3b91e 5.60000000E+01 5.00000000E-01
  1 1776 tsd-4b7ff5e3b91e 5.60000000E+01 5.00000000E-01
  1 1785 tsd-4b7ff5e3b91e 5.60000000E+01 5.00000000E-01
  1 1786 tsd-4b7ff5e3b91e 5.60000000E+01 5.00000000E-01
  1 1788 tsd-4b7ff5e3b91e 5.60000000E+01 5.00000000E-01
  1 1820 tsd-4b7ff5e3b91e 5.60000000E+01 5.00000000E-01
  1 1821 tsd-4b7ff5e3b91e 5.60000000E+01 5.00000000E-01
  1 1921 tsd-4b7ff5e3b91e 5.60000000E+01 5.00000000E-01
  1 2054 tsd-4b7ff5e3b91e 5.60000000E+01 5.00000000E-01
  1 2117 tsd-4b7ff5e3b91e 5.60000000E+01 5.00000000E-01
  1 2214 tsd-4b7ff5e3b91e 5.60000000E+01 5.00000000E-01
  1 2217 tsd-4b7ff5e3b91e 5.60000000E+01 5.00000000E-01
  1 2227 tsd-4b7ff5e3b91e 5.60000000E+01 5.00000000E-01
  1 2230 tsd-4b7ff5e3b91e 5.60000000E+01 5.00000000E-01
  1 2231 tsd-4b7ff5e3b91e 5.60000000E+01 5.00000000E-01
  1 2237 tsd-4b7ff5e3b91e 5.60000000E+01 5.00000000E-01
  1 2270 tsd-4b7ff5e3b91e 5.60000000E+01 5.00000000E-01
  1 2274 tsd-4b7ff5e3b91e 5.60000000E+01 5.00000000E-01
  1 2276 tsd-4b7ff5e3b91e 5.60000000E+01 5.00000000E-01
  1 2280 tsd-4b7ff5e3b91e 5.60000000E+01 5.00000000E-01
  1 2281 tsd-4b7ff5e3b91e 5.60000000E+01 5.00000000E-01
  1 2283 tsd-4b7ff5e3b91e 5.60000000E+01 5.00000000E-01
  1 13 tsd-c1bece9d928b 5.60000000E+01 1.00000000E+00
  1 19 tsd-c1bece9d928b 5.60000000E+01 1.00000000E+00
  1 228 tsd-c1bece9d928b 5.60000000E+01 1.00000000E+00
  1 655 tsd-c1bece9d928b 5.60000000E+01 1.00000000E+00
  1 783 tsd-c1bece9d928b 5.60000000E+01 1.00000000E+00
  1 911 tsd-c1bece9d928b 5.60000000E+01 1.00000000E+00
  1 1996 tsd-c1bece9d928b 5.60000000E+01 1.00000000E+00
  1 2468 tsd-c1bece9d928b 5.60000000E+01 1.00000000E+00
  1 2472 tsd-c1bece9d928b 5.60000000E+01 1.00000000E+00
  1 2479 tsd-c1bece9d928b 5.60000000E+01 1.00000000E+00
  1 2483 tsd-c1bece9d928b 5.60000000E+01 1.00000000E+00
  1 3068 tsd-c1bece9d928b 5.60000000E+01 1.00000000E+00
  1 3070 tsd-c1bece9d928b 5.60000000E+01 1.00000000E+00
  1 3071 tsd-c1bece9d928b 5.60000000E+01 1.00000000E+00
  1 216 tsd-c1bece9d928b 5.60000000E+01 1.00000000E+00
  1 764 tsd-c1bece9d928b 5.60000000E+01 1.00000000E+00
  1 797 tsd-c1bece9d928b 5.60000000E+01 1.00000000E+00
  1 810 tsd-c1bece9d928b 5.60000000E+01 1.00000000E+00
  1 1204 tsd-c1bece9d928b 5.60000000E+01 1.00000000E+00
  1 2469 tsd-c1bece9d928b 5.60000000E+01 1.00000000E+00
  1 2474 tsd-c1bece9d928b 5.60000000E+01 1.00000000E+00
  1 3060 tsd-c1bece9d928b 5.60000000E+01 1.00000000E+00
  1 3062 tsd-c1bece9d928b 5.60000000E+01 1.00000000E+00
  1 175 tsd-8528e7240dd7 5.60000000E+01 1.00000000E+00
  1 210 tsd-8528e7240dd7 5.60000000E+01 1.00000000E+00
  1 212 tsd-8528e7240dd7 5.60000000E+01 1.00000000E+00
  1 1864 tsd-8528e7240dd7 5.60000000E+01 1.00000000E+00
  1 3058 tsd-8528e7240dd7 5.60000000E+01 1.00000000E+00
  1 3067 tsd-8528e7240dd7 5.60000000E+01 1.00000000E+00
  1 3622 tsd-8528e7240dd7 5.60000000E+01 1.00000000E+00
  1 3626 tsd-8528e7240dd7 5.60000000E+01 1.00000000E+00
  1 3627 tsd-8528e7240dd7 5.60000000E+01 1.00000000E+00
  1 3837 tsd-8528e7240dd7 5.60000000E+01 1.00000000E+00
  1 3839 tsd-8528e7240dd7 5.60000000E+01 1.00000000E+00
  1 4020 tsd-8528e7240dd7 5.60000000E+01 1.00000000E+00
  1 4023 tsd-8528e7240dd7 5.60000000E+01 1.00000000E+00
  1 4025 tsd-8528e7240dd7 5.60000000E+01 1.00000000E+00
  1 4026 tsd-8528e7240dd7 5.60000000E+01 1.00000000E+00
  1 4091 tsd-8528e7240dd7 5.60000000E+01 1.00000000E+00
  1 4093 tsd-8528e7240dd7 5.60000000E+01 1.00000000E+00
  1 4095 tsd-8528e7240dd7 5.60000000E+01 1.00000000E+00
  1 4096 tsd-8528e7240dd7 5.60000000E+01 1.00000000E+00
  1 4123 tsd-8528e7240dd7 5.60000000E+01 1.00000000E+00
  1 4131 tsd-8528e7240dd7 5.60000000E+01 1.00000000E+00
  1 4132 tsd-8528e7240dd7 5.60000000E+01 1.00000000E+00
  1 4133 tsd-8528e7240dd7 5.60000000E+01 1.00000000E+00
  1 4137 tsd-8528e7240dd7 5.60000000E+01 1.00000000E+00
  1 4150 tsd-8528e7240dd7 5.60000000E+01 1.00000000E+00
  1 4153 tsd-8528e7240dd7 5.60000000E+01 1.00000000E+00
  1 4154 tsd-8528e7240dd7 5.60000000E+01 1.00000000E+00
  1 4163 tsd-8528e7240dd7 5.60000000E+01 1.00000000E+00
  1 4166 tsd-8528e7240dd7 5.60000000E+01 1.00000000E+00
  1 4169 tsd-8528e7240dd7 5.60000000E+01 1.00000000E+00
END period  4

BEGIN period  5
  1 662 tsd-4b7ff5e3b91e 5.60000000E+01 5.00000000E-01
  1 1023 tsd-4b7ff5e3b91e 5.60000000E+01 5.00000000E-01
  1 1085 tsd-4b7ff5e3b91e 5.60000000E+01 5.00000000E-01
  1 1228 tsd-4b7ff5e3b91e 5.60000000E+01 5.00000000E-01
  1 1233 tsd-4b7ff5e3b91e 5.60000000E+01 5.00000000E-01
  1 1301 tsd-4b7ff5e3b91e 5.60000000E+01 5.00000000E-01
  1 1404 tsd-4b7ff5e3b91e 5.60000000E+01 5.00000000E-01
  1 1413 tsd-4b7ff5e3b91e 5.60000000E+01 5.00000000E-01
  1 1529 tsd-4b7ff5e3b91e 5.60000000E+01 5.00000000E-01
  1 1559 tsd-4b7ff5e3b91e 5.60000000E+01 5.00000000E-01
  1 1676 tsd-4b7ff5e3b91e 5.60000000E+01 5.00000000E-01
  1 1746 tsd-4b7ff5e3b91e 5.60000000E+01 5.00000000E-01
  1 1773 tsd-4b7ff5e3b91e 5.60000000E+01 5.00000000E-01
  1 1776 tsd-4b7ff5e3b91e 5.60000000E+01 5.00000000E-01
  1 1785 tsd-4b7ff5e3b91e 5.60000000E+01 5.00000000E-01
  1 1786 tsd-4b7ff5e3b91e 5.60000000E+01 5.00000000E-01
  1 1788 tsd-4b7ff5e3b91e 5.60000000E+01 5.00000000E-01
  1 1820 tsd-4b7ff5e3b91e 5.60000000E+01 5.00000000E-01
  1 1821 tsd-4b7ff5e3b91e 5.60000000E+01 5.00000000E-01
  1 1921 tsd-4b7ff5e3b91e 5.60000000E+01 5.00000000E-01
  1 2054 tsd-4b7ff5e3b91e 5.60000000E+01 5.00000000E-01
  1 2117 tsd-4b7ff5e3b91e 5.60000000E+01 5.00000000E-01
  1 2214 tsd-4b7ff5e3b91e 5.60000000E+01 5.00000000E-01
  1 2217 tsd-4b7ff5e3b91e 5.60000000E+01 5.00000000E-01
  1 2227 tsd-4b7ff5e3b91e 5.60000000E+01 5.00000000E-01
  1 2230 tsd-4b7ff5e3b91e 5.60000000E+01 5.00000000E-01
  1 2231 tsd-4b7ff5e3b91e 5.60000000E+01 5.00000000E-01
  1 2237 tsd-4b7ff5e3b91e 5.60000000E+01 5.00000000E-01
  1 2270 tsd-4b7ff5e3b91e 5.60000000E+01 5.00000000E-01
  1 2274 tsd-4b7ff5e3b91e 5.60000000E+01 5.00000000E-01
  1 2276 tsd-4b7ff5e3b91e 5.60000000E+01 5.00000000E-01
  1 2280 tsd-4b7ff5e3b91e 5.60000000E+01 5.00000000E-01
  1 2281 tsd-4b7ff5e3b91e 5.60000000E+01 5.00000000E-01
  1 2283 tsd-4b7ff5e3b91e 5.60000000E+01 5.00000000E-01
  1 13 tsd-c1bece9d928b 5.60000000E+01 1.00000000E+00
  1 19 tsd-c1bece9d928b 5.60000000E+01 1.00000000E+00
  1 228 tsd-c1bece9d928b 5.60000000E+01 1.00000000E+00
  1 655 tsd-c1bece9d928b 5.60000000E+01 1.00000000E+00
  1 783 tsd-c1bece9d928b 5.60000000E+01 1.00000000E+00
  1 911 tsd-c1bece9d928b 5.60000000E+01 1.00000000E+00
  1 1996 tsd-c1bece9d928b 5.60000000E+01 1.00000000E+00
  1 2468 tsd-c1bece9d928b 5.60000000E+01 1.00000000E+00
  1 2472 tsd-c1bece9d928b 5.60000000E+01 1.00000000E+00
  1 2479 tsd-c1bece9d928b 5.60000000E+01 1.00000000E+00
  1 2483 tsd-c1bece9d928b 5.60000000E+01 1.00000000E+00
  1 3068 tsd-c1bece9d928b 5.60000000E+01 1.00000000E+00
  1 3070 tsd-c1bece9d928b 5.60000000E+01 1.00000000E+00
  1 3071 tsd-c1bece9d928b 5.60000000E+01 1.00000000E+00
  1 216 tsd-c1bece9d928b 5.60000000E+01 1.00000000E+00
  1 764 tsd-c1bece9d928b 5.60000000E+01 1.00000000E+00
  1 797 tsd-c1bece9d928b 5.60000000E+01 1.00000000E+00
  1 810 tsd-c1bece9d928b 5.60000000E+01 1.00000000E+00
  1 1204 tsd-c1bece9d928b 5.60000000E+01 1.00000000E+00
  1 2469 tsd-c1bece9d928b 5.60000000E+01 1.00000000E+00
  1 2474 tsd-c1bece9d928b 5.60000000E+01 1.00000000E+00
  1 3060 tsd-c1bece9d928b 5.60000000E+01 1.00000000E+00
  1 3062 tsd-c1bece9d928b 5.60000000E+01 1.00000000E+00
  1 175 tsd-8528e7240dd7 5.60000000E+01 1.00000000E+00
  1 210 tsd-8528e7240dd7 5.60000000E+01 1.00000000E+00
  1 212 tsd-8528e7240dd7 5.60000000E+01 1.00000000E+00
  1 1864 tsd-8528e7240dd7 5.60000000E+01 1.00000000E+00
  1 3058 tsd-8528e7240dd7 5.60000000E+01 1.00000000E+00
  1 3067 tsd-8528e7240dd7 5.60000000E+01 1.00000000E+00
  1 3622 tsd-8528e7240dd7 5.60000000E+01 1.00000000E+00
  1 3626 tsd-8528e7240dd7 5.60000000E+01 1.00000000E+00
  1 3627 tsd-8528e7240dd7 5.60000000E+01 1.00000000E+00
  1 3837 tsd-8528e7240dd7 5.60000000E+01 1.00000000E+00
  1 3839 tsd-8528e7240dd7 5.60000000E+01 1.00000000E+00
  1 4020 tsd-8528e7240dd7 5.60000000E+01 1.00000000E+00
  1 4023 tsd-8528e7240dd7 5.60000000E+01 1.00000000E+00
  1 4025 tsd-8528e7240dd7 5.60000000E+01 1.00000000E+00
  1 4026 tsd-8528e7240dd7 5.60000000E+01 1.00000000E+00
  1 4091 tsd-8528e7240dd7 5.60000000E+01 1.00000000E+00
  1 4093 tsd-8528e7240dd7 5.60000000E+01 1.00000000E+00
  1 4095 tsd-8528e7240dd7 5.60000000E+01 1.00000000E+00
  1 4096 tsd-8528e7240dd7 5.60000000E+01 1.00000000E+00
  1 4123 tsd-8528e7240dd7 5.60000000E+01 1.00000000E+00
  1 4131 tsd-8528e7240dd7 5.60000000E+01 1.00000000E+00
  1 4132 tsd-8528e7240dd7 5.60000000E+01 1.00000000E+00
  1 4133 tsd-8528e7240dd7 5.60000000E+01 1.00000000E+00
  1 4137 tsd-8528e7240dd7 5.60000000E+01 1.00000000E+00
  1 4150 tsd-8528e7240dd7 5.60000000E+01 1.00000000E+00
  1 4153 tsd-8528e7240dd7 5.60000000E+01 1.00000000E+00
  1 4154 tsd-8528e7240dd7 5.60000000E+01 1.00000000E+00
  1 4163 tsd-8528e7240dd7 5.60000000E+01 1.00000000E+00
  1 4166 tsd-8528e7240dd7 5.60000000E+01 1.00000000E+00
  1 4169 tsd-8528e7240dd7 5.60000000E+01 1.00000000E+00
END period  5

BEGIN period  6
  1 662 tsd-4b7ff5e3b91e 5.60000000E+01 5.00000000E-01
  1 1023 tsd-4b7ff5e3b91e 5.60000000E+01 5.00000000E-01
  1 1085 tsd-4b7ff5e3b91e 5.60000000E+01 5.00000000E-01
  1 1228 tsd-4b7ff5e3b91e 5.60000000E+01 5.00000000E-01
  1 1233 tsd-4b7ff5e3b91e 5.60000000E+01 5.00000000E-01
  1 1301 tsd-4b7ff5e3b91e 5.60000000E+01 5.00000000E-01
  1 1404 tsd-4b7ff5e3b91e 5.60000000E+01 5.00000000E-01
  1 1413 tsd-4b7ff5e3b91e 5.60000000E+01 5.00000000E-01
  1 1529 tsd-4b7ff5e3b91e 5.60000000E+01 5.00000000E-01
  1 1559 tsd-4b7ff5e3b91e 5.60000000E+01 5.00000000E-01
  1 1676 tsd-4b7ff5e3b91e 5.60000000E+01 5.00000000E-01
  1 1746 tsd-4b7ff5e3b91e 5.60000000E+01 5.00000000E-01
  1 1773 tsd-4b7ff5e3b91e 5.60000000E+01 5.00000000E-01
  1 1776 tsd-4b7ff5e3b91e 5.60000000E+01 5.00000000E-01
  1 1785 tsd-4b7ff5e3b91e 5.60000000E+01 5.00000000E-01
  1 1786 tsd-4b7ff5e3b91e 5.60000000E+01 5.00000000E-01
  1 1788 tsd-4b7ff5e3b91e 5.60000000E+01 5.00000000E-01
  1 1820 tsd-4b7ff5e3b91e 5.60000000E+01 5.00000000E-01
  1 1821 tsd-4b7ff5e3b91e 5.60000000E+01 5.00000000E-01
  1 1921 tsd-4b7ff5e3b91e 5.60000000E+01 5.00000000E-01
  1 2054 tsd-4b7ff5e3b91e 5.60000000E+01 5.00000000E-01
  1 2117 tsd-4b7ff5e3b91e 5.60000000E+01 5.00000000E-01
  1 2214 tsd-4b7ff5e3b91e 5.60000000E+01 5.00000000E-01
  1 2217 tsd-4b7ff5e3b91e 5.60000000E+01 5.00000000E-01
  1 2227 tsd-4b7ff5e3b91e 5.60000000E+01 5.00000000E-01
  1 2230 tsd-4b7ff5e3b91e 5.60000000E+01 5.00000000E-01
  1 2231 tsd-4b7ff5e3b91e 5.60000000E+01 5.00000000E-01
  1 2237 tsd-4b7ff5e3b91e 5.60000000E+01 5.00000000E-01
  1 2270 tsd-4b7ff5e3b91e 5.60000000E+01 5.00000000E-01
  1 2274 tsd-4b7ff5e3b91e 5.60000000E+01 5.00000000E-01
  1 2276 tsd-4b7ff5e3b91e 5.60000000E+01 5.00000000E-01
  1 2280 tsd-4b7ff5e3b91e 5.60000000E+01 5.00000000E-01
  1 2281 tsd-4b7ff5e3b91e 5.60000000E+01 5.00000000E-01
  1 2283 tsd-4b7ff5e3b91e 5.60000000E+01 5.00000000E-01
  1 13 tsd-c1bece9d928b 5.60000000E+01 1.00000000E+00
  1 19 tsd-c1bece9d928b 5.60000000E+01 1.00000000E+00
  1 228 tsd-c1bece9d928b 5.60000000E+01 1.00000000E+00
  1 655 tsd-c1bece9d928b 5.60000000E+01 1.00000000E+00
  1 783 tsd-c1bece9d928b 5.60000000E+01 1.00000000E+00
  1 911 tsd-c1bece9d928b 5.60000000E+01 1.00000000E+00
  1 1996 tsd-c1bece9d928b 5.60000000E+01 1.00000000E+00
  1 2468 tsd-c1bece9d928b 5.60000000E+01 1.00000000E+00
  1 2472 tsd-c1bece9d928b 5.60000000E+01 1.00000000E+00
  1 2479 tsd-c1bece9d928b 5.60000000E+01 1.00000000E+00
  1 2483 tsd-c1bece9d928b 5.60000000E+01 1.00000000E+00
  1 3068 tsd-c1bece9d928b 5.60000000E+01 1.00000000E+00
  1 3070 tsd-c1bece9d928b 5.60000000E+01 1.00000000E+00
  1 3071 tsd-c1bece9d928b 5.60000000E+01 1.00000000E+00
  1 216 tsd-c1bece9d928b 5.60000000E+01 1.00000000E+00
  1 764 tsd-c1bece9d928b 5.60000000E+01 1.00000000E+00
  1 797 tsd-c1bece9d928b 5.60000000E+01 1.00000000E+00
  1 810 tsd-c1bece9d928b 5.60000000E+01 1.00000000E+00
  1 1204 tsd-c1bece9d928b 5.60000000E+01 1.00000000E+00
  1 2469 tsd-c1bece9d928b 5.60000000E+01 1.00000000E+00
  1 2474 tsd-c1bece9d928b 5.60000000E+01 1.00000000E+00
  1 3060 tsd-c1bece9d928b 5.60000000E+01 1.00000000E+00
  1 3062 tsd-c1bece9d928b 5.60000000E+01 1.00000000E+00
  1 175 tsd-8528e7240dd7 5.60000000E+01 1.00000000E+00
  1 210 tsd-8528e7240dd7 5.60000000E+01 1.00000000E+00
  1 212 tsd-8528e7240dd7 5.60000000E+01 1.00000000E+00
  1 1864 tsd-8528e7240dd7 5.60000000E+01 1.00000000E+00
  1 3058 tsd-8528e7240dd7 5.60000000E+01 1.00000000E+00
  1 3067 tsd-8528e7240dd7 5.60000000E+01 1.00000000E+00
  1 3622 tsd-8528e7240dd7 5.60000000E+01 1.00000000E+00
  1 3626 tsd-8528e7240dd7 5.60000000E+01 1.00000000E+00
  1 3627 tsd-8528e7240dd7 5.60000000E+01 1.00000000E+00
  1 3837 tsd-8528e7240dd7 5.60000000E+01 1.00000000E+00
  1 3839 tsd-8528e7240dd7 5.60000000E+01 1.00000000E+00
  1 4020 tsd-8528e7240dd7 5.60000000E+01 1.00000000E+00
  1 4023 tsd-8528e7240dd7 5.60000000E+01 1.00000000E+00
  1 4025 tsd-8528e7240dd7 5.60000000E+01 1.00000000E+00
  1 4026 tsd-8528e7240dd7 5.60000000E+01 1.00000000E+00
  1 4091 tsd-8528e7240dd7 5.60000000E+01 1.00000000E+00
  1 4093 tsd-8528e7240dd7 5.60000000E+01 1.00000000E+00
  1 4095 tsd-8528e7240dd7 5.60000000E+01 1.00000000E+00
  1 4096 tsd-8528e7240dd7 5.60000000E+01 1.00000000E+00
  1 4123 tsd-8528e7240dd7 5.60000000E+01 1.00000000E+00
  1 4131 tsd-8528e7240dd7 5.60000000E+01 1.00000000E+00
  1 4132 tsd-8528e7240dd7 5.60000000E+01 1.00000000E+00
  1 4133 tsd-8528e7240dd7 5.60000000E+01 1.00000000E+00
  1 4137 tsd-8528e7240dd7 5.60000000E+01 1.00000000E+00
  1 4150 tsd-8528e7240dd7 5.60000000E+01 1.00000000E+00
  1 4153 tsd-8528e7240dd7 5.60000000E+01 1.00000000E+00
  1 4154 tsd-8528e7240dd7 5.60000000E+01 1.00000000E+00
  1 4163 tsd-8528e7240dd7 5.60000000E+01 1.00000000E+00
  1 4166 tsd-8528e7240dd7 5.60000000E+01 1.00000000E+00
  1 4169 tsd-8528e7240dd7 5.60000000E+01 1.00000000E+00
END period  6

BEGIN period  7
  1 662 tsd-4b7ff5e3b91e 5.60000000E+01 5.00000000E-01
  1 1023 tsd-4b7ff5e3b91e 5.60000000E+01 5.00000000E-01
  1 1085 tsd-4b7ff5e3b91e 5.60000000E+01 5.00000000E-01
  1 1228 tsd-4b7ff5e3b91e 5.60000000E+01 5.00000000E-01
  1 1233 tsd-4b7ff5e3b91e 5.60000000E+01 5.00000000E-01
  1 1301 tsd-4b7ff5e3b91e 5.60000000E+01 5.00000000E-01
  1 1404 tsd-4b7ff5e3b91e 5.60000000E+01 5.00000000E-01