# File generated by Flopy version 3.5.0 on 11/06/2024 at 09:56:28.
BEGIN options
  TS6  FILEIN  gwf.chd.ts
  TS6  FILEIN  gwf.chd0.ts
  TS6  FILEIN  gwf.chd1.ts
  TS6  FILEIN  gwf.chd2.ts
  TS6  FILEIN  gwf.chd3.ts
  TS6  FILEIN  gwf.chd4.ts
  TS6  FILEIN  gwf.chd5.ts
  TS6  FILEIN  gwf.chd6.ts
  TS6  FILEIN  gwf.chd7.ts
  TS6  FILEIN  gwf.chd8.ts
  TS6  FILEIN  gwf.chd9.ts
  TS6  FILEIN  gwf.chd10.ts
  TS6  FILEIN  gwf.chd11.ts
  TS6  FILEIN  gwf.chd12.ts
  TS6  FILEIN  gwf.chd13.ts
  TS6  FILEIN  gwf.chd14.ts
  TS6  FILEIN  gwf.chd15.ts
  TS6  FILEIN  gwf.chd16.ts
  TS6  FILEIN  gwf.chd17.ts
  TS6  FILEIN  gwf.chd18.ts
  TS6  FILEIN  gwf.chd19.ts
  TS6  FILEIN  gwf.chd20.ts
  TS6  FILEIN  gwf.chd21.ts
  TS6  FILEIN  gwf.chd22.ts
END options

BEGIN dimensions
  MAXBOUND  1876
END dimensions

BEGIN period  1
  1 76 tsd-685f2130ef67
  1 354 tsd-685f2130ef67
  1 357 tsd-685f2130ef67
  1 358 tsd-685f2130ef67
  1 363 tsd-685f2130ef67
  1 364 tsd-685f2130ef67
  1 368 tsd-685f2130ef67
  1 370 tsd-685f2130ef67
  1 371 tsd-685f2130ef67
  1 373 tsd-685f2130ef67
  1 384 tsd-685f2130ef67
  1 477 tsd-685f2130ef67
  1 58 tsd-835388239063
  1 72 tsd-835388239063
  1 318 tsd-835388239063
  1 320 tsd-835388239063
  1 321 tsd-835388239063
  1 323 tsd-835388239063
  1 353 tsd-835388239063
  1 361 tsd-835388239063
  1 375 tsd-835388239063
  1 382 tsd-835388239063
  1 582 tsd-835388239063
  1 649 tsd-835388239063
  1 984 tsd-835388239063
  1 1025 tsd-835388239063
  1 1028 tsd-835388239063
  1 62 tsd-4104bd542967
  1 303 tsd-4104bd542967
  1 307 tsd-4104bd542967
  1 308 tsd-4104bd542967
  1 311 tsd-4104bd542967
  1 313 tsd-4104bd542967
  1 314 tsd-4104bd542967
  1 344 tsd-4104bd542967
  1 383 tsd-4104bd542967
  1 478 tsd-4104bd542967
  1 560 tsd-4104bd542967
  1 648 tsd-4104bd542967
  1 982 tsd-4104bd542967
  1 101 tsd-5100f71842b8
  1 146 tsd-5100f71842b8
  1 160 tsd-5100f71842b8
  1 190 tsd-5100f71842b8
  1 225 tsd-5100f71842b8
  1 226 tsd-5100f71842b8
  1 229 tsd-5100f71842b8
  1 230 tsd-5100f71842b8
  1 233 tsd-5100f71842b8
  1 235 tsd-5100f71842b8
  1 236 tsd-5100f71842b8
  1 240 tsd-5100f71842b8
  1 242 tsd-5100f71842b8
  1 243 tsd-5100f71842b8
  1 245 tsd-5100f71842b8
  1 247 tsd-5100f71842b8
  1 251 tsd-5100f71842b8
  1 252 tsd-5100f71842b8
  1 255 tsd-5100f71842b8
  1 256 tsd-5100f71842b8
  1 259 tsd-5100f71842b8
  1 262 tsd-5100f71842b8
  1 263 tsd-5100f71842b8
  1 266 tsd-5100f71842b8
  1 268 tsd-5100f71842b8
  1 269 tsd-5100f71842b8
  1 271 tsd-5100f71842b8
  1 273 tsd-5100f71842b8
  1 275 tsd-5100f71842b8
  1 276 tsd-5100f71842b8
  1 279 tsd-5100f71842b8
  1 280 tsd-5100f71842b8
  1 283 tsd-5100f71842b8
  1 285 tsd-5100f71842b8
  1 286 tsd-5100f71842b8
  1 290 tsd-5100f71842b8
  1 292 tsd-5100f71842b8
  1 293 tsd-5100f71842b8
  1 295 tsd-5100f71842b8
  1 345 tsd-5100f71842b8
  1 352 tsd-5100f71842b8
  1 405 tsd-5100f71842b8
  1 429 tsd-5100f71842b8
  1 461 tsd-5100f71842b8
  1 462 tsd-5100f71842b8
  1 578 tsd-5100f71842b8
  1 603 tsd-5100f71842b8
  1 607 tsd-5100f71842b8
  1 616 tsd-5100f71842b8
  1 618 tsd-5100f71842b8
  1 647 tsd-5100f71842b8
  1 659 tsd-5100f71842b8
  1 859 tsd-5100f71842b8
  1 869 tsd-5100f71842b8
  1 1005 tsd-5100f71842b8
  1 1010 tsd-5100f71842b8
  1 1013 tsd-5100f71842b8
  1 1016 tsd-5100f71842b8
  1 11 tsd-a673a0f61acf
  1 14 tsd-a673a0f61acf
  1 18 tsd-a673a0f61acf
  1 20 tsd-a673a0f61acf
  1 29 tsd-a673a0f61acf
  1 34 tsd-a673a0f61acf
  1 47 tsd-a673a0f61acf
  1 49 tsd-a673a0f61acf
  1 50 tsd-a673a0f61acf
  1 54 tsd-a673a0f61acf
  1 57 tsd-a673a0f61acf
  1 59 tsd-a673a0f61acf
  1 60 tsd-a673a0f61acf
  1 64 tsd-a673a0f61acf
  1 66 tsd-a673a0f61acf
  1 67 tsd-a673a0f61acf
  1 69 tsd-a673a0f61acf
  1 71 tsd-a673a0f61acf
  1 73 tsd-a673a0f61acf
  1 74 tsd-a673a0f61acf
  1 77 tsd-a673a0f61acf
  1 81 tsd-a673a0f61acf
  1 83 tsd-a673a0f61acf
  1 84 tsd-a673a0f61acf
  1 88 tsd-a673a0f61acf
  1 91 tsd-a673a0f61acf
  1 93 tsd-a673a0f61acf
  1 95 tsd-a673a0f61acf
  1 124 tsd-a673a0f61acf
  1 153 tsd-a673a0f61acf
  1 155 tsd-a673a0f61acf
  1 163 tsd-a673a0f61acf
  1 204 tsd-a673a0f61acf
  1 208 tsd-a673a0f61acf
  1 211 tsd-a673a0f61acf
  1 213 tsd-a673a0f61acf
  1 217 tsd-a673a0f61acf
  1 218 tsd-a673a0f61acf
  1 221 tsd-a673a0f61acf
  1 223 tsd-a673a0f61acf
  1 249 tsd-a673a0f61acf
  1 284 tsd-a673a0f61acf
  1 390 tsd-a673a0f61acf
  1 451 tsd-a673a0f61acf
  1 594 tsd-a673a0f61acf
  1 613 tsd-a673a0f61acf
  1 627 tsd-a673a0f61acf
  1 677 tsd-a673a0f61acf
  1 683 tsd-a673a0f61acf
  1 692 tsd-a673a0f61acf
  1 750 tsd-a673a0f61acf
  1 751 tsd-a673a0f61acf
  1 758 tsd-a673a0f61acf
  1 759 tsd-a673a0f61acf
  1 769 tsd-a673a0f61acf
  1 770 tsd-a673a0f61acf
  1 808 tsd-a673a0f61acf
  1 973 tsd-a673a0f61acf
  1 1066 tsd-a673a0f61acf
  1 1164 tsd-a673a0f61acf
  1 1918 tsd-a673a0f61acf
  1 3 tsd-ba5d8ef890df
  1 4 tsd-ba5d8ef890df
  1 5 tsd-ba5d8ef890df
  1 7 tsd-ba5d8ef890df
  1 9 tsd-ba5d8ef890df
  1 10 tsd-ba5d8ef890df
  1 15 tsd-ba5d8ef890df
  1 21 tsd-ba5d8ef890df
  1 24 tsd-ba5d8ef890df
  1 25 tsd-ba5d8ef890df
  1 26 tsd-ba5d8ef890df
  1 27 tsd-ba5d8ef890df
  1 32 tsd-ba5d8ef890df
  1 35 tsd-ba5d8ef890df
  1 36 tsd-ba5d8ef890df
  1 37 tsd-ba5d8ef890df
  1 39 tsd-ba5d8ef890df
  1 41 tsd-ba5d8ef890df
  1 44 tsd-ba5d8ef890df
  1 45 tsd-ba5d8ef890df
  1 48 tsd-ba5d8ef890df
  1 99 tsd-ba5d8ef890df
  1 111 tsd-ba5d8ef890df
  1 116 tsd-ba5d8ef890df
  1 133 tsd-ba5d8ef890df
  1 152 tsd-ba5d8ef890df
  1 156 tsd-ba5d8ef890df
  1 158 tsd-ba5d8ef890df
  1 161 tsd-ba5d8ef890df
  1 162 tsd-ba5d8ef890df
  1 165 tsd-ba5d8ef890df
  1 167 tsd-ba5d8ef890df
  1 170 tsd-ba5d8ef890df
  1 171 tsd-ba5d8ef890df
  1 186 tsd-ba5d8ef890df
  1 192 tsd-ba5d8ef890df
  1 198 tsd-ba5d8ef890df
  1 369 tsd-ba5d8ef890df
  1 417 tsd-ba5d8ef890df
  1 427 tsd-ba5d8ef890df
  1 439 tsd-ba5d8ef890df
  1 533 tsd-ba5d8ef890df
  1 593 tsd-ba5d8ef890df
  1 617 tsd-ba5d8ef890df
  1 623 tsd-ba5d8ef890df
  1 624 tsd-ba5d8ef890df
  1 628 tsd-ba5d8ef890df
  1 631 tsd-ba5d8ef890df
  1 670 tsd-ba5d8ef890df
  1 674 tsd-ba5d8ef890df
  1 688 tsd-ba5d8ef890df
  1 697 tsd-ba5d8ef890df
  1 968 tsd-ba5d8ef890df
  1 976 tsd-ba5d8ef890df
  1 1088 tsd-ba5d8ef890df
  1 1988 tsd-ba5d8ef890df
  1 103 tsd-642050550bff
  1 104 tsd-642050550bff
  1 106 tsd-642050550bff
  1 107 tsd-642050550bff
  1 108 tsd-642050550bff
  1 113 tsd-642050550bff
  1 114 tsd-642050550bff
  1 117 tsd-642050550bff
  1 118 tsd-642050550bff
  1 120 tsd-642050550bff
  1 121 tsd-642050550bff
  1 123 tsd-642050550bff
  1 125 tsd-642050550bff
  1 126 tsd-642050550bff
  1 127 tsd-642050550bff
  1 135 tsd-642050550bff
  1 136 tsd-642050550bff
  1 137 tsd-642050550bff
  1 142 tsd-642050550bff
  1 144 tsd-642050550bff
  1 173 tsd-642050550bff
  1 176 tsd-642050550bff
  1 177 tsd-642050550bff
  1 183 tsd-642050550bff
  1 187 tsd-642050550bff
  1 189 tsd-642050550bff
  1 202 tsd-642050550bff
  1 333 tsd-642050550bff
  1 336 tsd-642050550bff
  1 414 tsd-642050550bff
  1 419 tsd-642050550bff
  1 467 tsd-642050550bff
  1 598 tsd-642050550bff
  1 699 tsd-642050550bff
  1 701 tsd-642050550bff
  1 703 tsd-642050550bff
  1 706 tsd-642050550bff
  1 729 tsd-642050550bff
  1 801 tsd-642050550bff
  1 809 tsd-642050550bff
  1 997 tsd-642050550bff
  1 1058 tsd-642050550bff
  1 1910 tsd-642050550bff
  1 2 tsd-9a82ac6bcd87
  1 132 tsd-9a82ac6bcd87
  1 138 tsd-9a82ac6bcd87
  1 139 tsd-9a82ac6bcd87
  1 149 tsd-9a82ac6bcd87
  1 159 tsd-9a82ac6bcd87
  1 164 tsd-9a82ac6bcd87
  1 179 tsd-9a82ac6bcd87
  1 188 tsd-9a82ac6bcd87
  1 329 tsd-9a82ac6bcd87
  1 334 tsd-9a82ac6bcd87
  1 407 tsd-9a82ac6bcd87
  1 411 tsd-9a82ac6bcd87
  1 412 tsd-9a82ac6bcd87
  1 415 tsd-9a82ac6bcd87
  1 416 tsd-9a82ac6bcd87
  1 418 tsd-9a82ac6bcd87
  1 421 tsd-9a82ac6bcd87
  1 426 tsd-9a82ac6bcd87
  1 428 tsd-9a82ac6bcd87
  1 485 tsd-9a82ac6bcd87
  1 504 tsd-9a82ac6bcd87
  1 614 tsd-9a82ac6bcd87
  1 725 tsd-9a82ac6bcd87
  1 726 tsd-9a82ac6bcd87
  1 734 tsd-9a82ac6bcd87
  1 789 tsd-9a82ac6bcd87
  1 794 tsd-9a82ac6bcd87
  1 818 tsd-9a82ac6bcd87
  1 844 tsd-9a82ac6bcd87
  1 1060 tsd-9a82ac6bcd87
  1 1911 tsd-9a82ac6bcd87
  1 254 tsd-0f29c03aa018
  1 349 tsd-0f29c03aa018
  1 398 tsd-0f29c03aa018
  1 409 tsd-0f29c03aa018
  1 425 tsd-0f29c03aa018
  1 433 tsd-0f29c03aa018
  1 434 tsd-0f29c03aa018
  1 437 tsd-0f29c03aa018
  1 440 tsd-0f29c03aa018
  1 444 tsd-0f29c03aa018
  1 454 tsd-0f29c03aa018
  1 456 tsd-0f29c03aa018
  1 459 tsd-0f29c03aa018
  1 460 tsd-0f29c03aa018
  1 466 tsd-0f29c03aa018
  1 469 tsd-0f29c03aa018
  1 470 tsd-0f29c03aa018
  1 508 tsd-0f29c03aa018
  1 712 tsd-0f29c03aa018
  1 715 tsd-0f29c03aa018
  1 719 tsd-0f29c03aa018
  1 722 tsd-0f29c03aa018
  1 775 tsd-0f29c03aa018
  1 915 tsd-0f29c03aa018
  1 1002 tsd-0f29c03aa018
  1 1062 tsd-0f29c03aa018
  1 175 tsd-8ce33119fba4
  1 203 tsd-8ce33119fba4
  1 212 tsd-8ce33119fba4
  1 239 tsd-8ce33119fba4
  1 244 tsd-8ce33119fba4
  1 258 tsd-8ce33119fba4
  1 261 tsd-8ce33119fba4
  1 391 tsd-8ce33119fba4
  1 435 tsd-8ce33119fba4
  1 471 tsd-8ce33119fba4
  1 473 tsd-8ce33119fba4
  1 475 tsd-8ce33119fba4
  1 619 tsd-8ce33119fba4
  1 620 tsd-8ce33119fba4
  1 622 tsd-8ce33119fba4
  1 625 tsd-8ce33119fba4
  1 626 tsd-8ce33119fba4
  1 629 tsd-8ce33119fba4
  1 630 tsd-8ce33119fba4
  1 632 tsd-8ce33119fba4
  1 633 tsd-8ce33119fba4
  1 643 tsd-8ce33119fba4
  1 644 tsd-8ce33119fba4
  1 679 tsd-8ce33119fba4
  1 780 tsd-8ce33119fba4
  1 804 tsd-8ce33119fba4
  1 1042 tsd-8ce33119fba4
  1 1044 tsd-8ce33119fba4
  1 493 tsd-8ce33119fba4
  1 506 tsd-8ce33119fba4
  1 75 tsd-8ce33119fba4
  1 79 tsd-8ce33119fba4
  1 86 tsd-8ce33119fba4
  1 96 tsd-8ce33119fba4
  1 442 tsd-8ce33119fba4
  1 445 tsd-8ce33119fba4
  1 447 tsd-8ce33119fba4
  1 449 tsd-8ce33119fba4
  1 452 tsd-8ce33119fba4
  1 507 tsd-8ce33119fba4
  1 510 tsd-8ce33119fba4
  1 521 tsd-8ce33119fba4
  1 522 tsd-8ce33119fba4
  1 527 tsd-8ce33119fba4
  1 561 tsd-8ce33119fba4
  1 562 tsd-8ce33119fba4
  1 571 tsd-8ce33119fba4
  1 572 tsd-8ce33119fba4
  1 573 tsd-8ce33119fba4
  1 575 tsd-8ce33119fba4
  1 577 tsd-8ce33119fba4
  1 589 tsd-8ce33119fba4
  1 610 tsd-8ce33119fba4
  1 657 tsd-8ce33119fba4
  1 819 tsd-8ce33119fba4
  1 987 tsd-8ce33119fba4
  1 1914 tsd-8ce33119fba4
  1 3687 tsd-8ce33119fba4
  1 3690 tsd-8ce33119fba4
  1 511 tsd-71b8b5d41166
  1 512 tsd-71b8b5d41166
  1 513 tsd-71b8b5d41166
  1 515 tsd-71b8b5d41166
  1 516 tsd-71b8b5d41166
  1 523 tsd-71b8b5d41166
  1 525 tsd-71b8b5d41166
  1 530 tsd-71b8b5d41166
  1 531 tsd-71b8b5d41166
  1 535 tsd-71b8b5d41166
  1 536 tsd-71b8b5d41166
  1 540 tsd-71b8b5d41166
  1 547 tsd-71b8b5d41166
  1 550 tsd-71b8b5d41166
  1 552 tsd-71b8b5d41166
  1 554 tsd-71b8b5d41166
  1 581 tsd-71b8b5d41166
  1 584 tsd-71b8b5d41166
  1 826 tsd-71b8b5d41166
  1 89 tsd-2c655f5cb4e7
  1 205 tsd-2c655f5cb4e7
  1 408 tsd-2c655f5cb4e7
  1 484 tsd-2c655f5cb4e7
  1 487 tsd-2c655f5cb4e7
  1 488 tsd-2c655f5cb4e7
  1 490 tsd-2c655f5cb4e7
  1 494 tsd-2c655f5cb4e7
  1 495 tsd-2c655f5cb4e7
  1 497 tsd-2c655f5cb4e7
  1 499 tsd-2c655f5cb4e7
  1 502 tsd-2c655f5cb4e7
  1 503 tsd-2c655f5cb4e7
  1 1034 tsd-2c655f5cb4e7
  1 1036 tsd-2c655f5cb4e7
  1 1068 tsd-2c655f5cb4e7
  1 1090 tsd-2c655f5cb4e7
  1 289 tsd-73600c9cb5b4
  1 294 tsd-73600c9cb5b4
  1 395 tsd-73600c9cb5b4
  1 432 tsd-73600c9cb5b4
  1 436 tsd-73600c9cb5b4
  1 492 tsd-73600c9cb5b4
  1 509 tsd-73600c9cb5b4
  1 537 tsd-73600c9cb5b4
  1 542 tsd-73600c9cb5b4
  1 545 tsd-73600c9cb5b4
  1 546 tsd-73600c9cb5b4
  1 549 tsd-73600c9cb5b4
  1 558 tsd-73600c9cb5b4
  1 563 tsd-73600c9cb5b4
  1 568 tsd-73600c9cb5b4
  1 580 tsd-73600c9cb5b4
  1 583 tsd-73600c9cb5b4
  1 586 tsd-73600c9cb5b4
  1 590 tsd-73600c9cb5b4
  1 592 tsd-73600c9cb5b4
  1 595 tsd-73600c9cb5b4
  1 596 tsd-73600c9cb5b4
  1 597 tsd-73600c9cb5b4
  1 599 tsd-73600c9cb5b4
  1 602 tsd-73600c9cb5b4
  1 604 tsd-73600c9cb5b4
  1 606 tsd-73600c9cb5b4
  1 612 tsd-73600c9cb5b4
  1 664 tsd-73600c9cb5b4
  1 668 tsd-73600c9cb5b4
  1 675 tsd-73600c9cb5b4
  1 711 tsd-73600c9cb5b4
  1 745 tsd-73600c9cb5b4
  1 883 tsd-73600c9cb5b4
  1 988 tsd-73600c9cb5b4
  1 1922 tsd-73600c9cb5b4
  1 278 tsd-d6fb510e2d7b
  1 305 tsd-d6fb510e2d7b
  1 309 tsd-d6fb510e2d7b
  1 310 tsd-d6fb510e2d7b
  1 312 tsd-d6fb510e2d7b
  1 359 tsd-d6fb510e2d7b
  1 367 tsd-d6fb510e2d7b
  1 376 tsd-d6fb510e2d7b
  1 551 tsd-d6fb510e2d7b
  1 585 tsd-d6fb510e2d7b
  1 713 tsd-d6fb510e2d7b
  1 714 tsd-d6fb510e2d7b
  1 717 tsd-d6fb510e2d7b
  1 721 tsd-d6fb510e2d7b
  1 728 tsd-d6fb510e2d7b
  1 733 tsd-d6fb510e2d7b
  1 737 tsd-d6fb510e2d7b
  1 738 tsd-d6fb510e2d7b
  1 741 tsd-d6fb510e2d7b
  1 742 tsd-d6fb510e2d7b
  1 747 tsd-d6fb510e2d7b
  1 752 tsd-d6fb510e2d7b
  1 754 tsd-d6fb510e2d7b
  1 756 tsd-d6fb510e2d7b
  1 757 tsd-d6fb510e2d7b
  1 760 tsd-d6fb510e2d7b
  1 785 tsd-d6fb510e2d7b
  1 814 tsd-d6fb510e2d7b
  1 830 tsd-d6fb510e2d7b
  1 833 tsd-d6fb510e2d7b
  1 834 tsd-d6fb510e2d7b
  1 1046 tsd-d6fb510e2d7b
  1 1076 tsd-d6fb510e2d7b
  1 1092 tsd-d6fb510e2d7b
  1 196 tsd-d6fb510e2d7b
  1 362 tsd-d6fb510e2d7b
  1 372 tsd-d6fb510e2d7b
  1 431 tsd-d6fb510e2d7b
  1 463 tsd-d6fb510e2d7b
  1 544 tsd-d6fb510e2d7b
  1 553 tsd-d6fb510e2d7b
  1 723 tsd-d6fb510e2d7b
  1 736 tsd-d6fb510e2d7b
  1 761 tsd-d6fb510e2d7b
  1 768 tsd-d6fb510e2d7b
  1 787 tsd-d6fb510e2d7b
  1 788 tsd-d6fb510e2d7b
  1 791 tsd-d6fb510e2d7b
  1 792 tsd-d6fb510e2d7b
  1 807 tsd-d6fb510e2d7b
  1 811 tsd-d6fb510e2d7b
  1 863 tsd-d6fb510e2d7b
  1 724 tsd-d6fb510e2d7b
  1 730 tsd-d6fb510e2d7b
  1 19 tsd-d6fb510e2d7b
  1 185 tsd-d6fb510e2d7b
  1 201 tsd-d6fb510e2d7b
  1 219 tsd-d6fb510e2d7b
  1 220 tsd-d6fb510e2d7b
  1 222 tsd-d6fb510e2d7b
  1 265 tsd-d6fb510e2d7b
  1 465 tsd-d6fb510e2d7b
  1 524 tsd-d6fb510e2d7b
  1 763 tsd-d6fb510e2d7b
  1 771 tsd-d6fb510e2d7b
  1 778 tsd-d6fb510e2d7b
  1 782 tsd-d6fb510e2d7b
  1 783 tsd-d6fb510e2d7b
  1 786 tsd-d6fb510e2d7b
  1 797 tsd-d6fb510e2d7b
  1 798 tsd-d6fb510e2d7b
  1 802 tsd-d6fb510e2d7b
  1 806 tsd-d6fb510e2d7b
  1 810 tsd-d6fb510e2d7b
  1 850 tsd-d6fb510e2d7b
  1 1040 tsd-d6fb510e2d7b
  1 1070 tsd-d6fb510e2d7b
  1 12 tsd-d90a20960b9c
  1 231 tsd-d90a20960b9c
  1 232 tsd-d90a20960b9c
  1 238 tsd-d90a20960b9c
  1 248 tsd-d90a20960b9c
  1 399 tsd-d90a20960b9c
  1 635 tsd-d90a20960b9c
  1 638 tsd-d90a20960b9c
  1 639 tsd-d90a20960b9c
  1 645 tsd-d90a20960b9c
  1 646 tsd-d90a20960b9c
  1 650 tsd-d90a20960b9c
  1 652 tsd-d90a20960b9c
  1 654 tsd-d90a20960b9c
  1 658 tsd-d90a20960b9c
  1 660 tsd-d90a20960b9c
  1 689 tsd-d90a20960b9c
  1 709 tsd-d90a20960b9c
  1 773 tsd-d90a20960b9c
  1 774 tsd-d90a20960b9c
  1 823 tsd-d90a20960b9c
  1 824 tsd-d90a20960b9c
  1 1050 tsd-d90a20960b9c
  1 1072 tsd-d90a20960b9c
  1 63 tsd-c170b35da514
  1 68 tsd-c170b35da514
  1 145 tsd-c170b35da514
  1 178 tsd-c170b35da514
  1 193 tsd-c170b35da514
  1 304 tsd-c170b35da514
  1 319 tsd-c170b35da514
  1 327 tsd-c170b35da514
  1 328 tsd-c170b35da514
  1 332 tsd-c170b35da514
  1 335 tsd-c170b35da514
  1 338 tsd-c170b35da514
  1 342 tsd-c170b35da514
  1 346 tsd-c170b35da514
  1 347 tsd-c170b35da514
  1 350 tsd-c170b35da514
  1 351 tsd-c170b35da514
  1 377 tsd-c170b35da514
  1 378 tsd-c170b35da514
  1 381 tsd-c170b35da514
  1 385 tsd-c170b35da514
  1 387 tsd-c170b35da514
  1 388 tsd-c170b35da514
  1 392 tsd-c170b35da514
  1 394 tsd-c170b35da514
  1 396 tsd-c170b35da514
  1 397 tsd-c170b35da514
  1 400 tsd-c170b35da514
  1 401 tsd-c170b35da514
  1 538 tsd-c170b35da514
  1 609 tsd-c170b35da514
  1 653 tsd-c170b35da514
  1 656 tsd-c170b35da514
  1 744 tsd-c170b35da514
  1 817 tsd-c170b35da514
  1 1021 tsd-c170b35da514
  1 1032 tsd-c170b35da514
  1 298 tsd-c170b35da514
  1 331 tsd-c170b35da514
  1 339 tsd-c170b35da514
  1 601 tsd-c170b35da514
  1 634 tsd-c170b35da514
  1 662 tsd-c170b35da514
  1 663 tsd-c170b35da514
  1 666 tsd-c170b35da514
  1 667 tsd-c170b35da514
  1 669 tsd-c170b35da514
  1 671 tsd-c170b35da514
  1 672 tsd-c170b35da514
  1 676 tsd-c170b35da514
  1 678 tsd-c170b35da514
  1 680 tsd-c170b35da514
  1 684 tsd-c170b35da514
  1 695 tsd-c170b35da514
  1 704 tsd-c170b35da514
  1 708 tsd-c170b35da514
  1 779 tsd-c170b35da514
  1 852 tsd-c170b35da514
  1 855 tsd-c170b35da514
  1 856 tsd-c170b35da514
  1 1014 tsd-c170b35da514
  1 1084 tsd-c170b35da514
  1 1921 tsd-c170b35da514
  1 841 tsd-c170b35da514
  1 317 tsd-d90a20960b9c
  1 324 tsd-d90a20960b9c
  1 587 tsd-d90a20960b9c
  1 686 tsd-d90a20960b9c
  1 693 tsd-d90a20960b9c
  1 696 tsd-d90a20960b9c
  1 700 tsd-d90a20960b9c
  1 702 tsd-d90a20960b9c
  1 705 tsd-d90a20960b9c
  1 836 tsd-d90a20960b9c
  1 839 tsd-d90a20960b9c
  1 840 tsd-d90a20960b9c
  3 58 tsd-ae38804920a5
  3 62 tsd-ae38804920a5
  3 72 tsd-ae38804920a5
  3 76 tsd-ae38804920a5
  3 146 tsd-ae38804920a5
  3 268 tsd-ae38804920a5
  3 269 tsd-ae38804920a5
  3 275 tsd-ae38804920a5
  3 276 tsd-ae38804920a5
  3 279 tsd-ae38804920a5
  3 280 tsd-ae38804920a5
  3 283 tsd-ae38804920a5
  3 285 tsd-ae38804920a5
  3 286 tsd-ae38804920a5
  3 290 tsd-ae38804920a5
  3 292 tsd-ae38804920a5
  3 293 tsd-ae38804920a5
  3 295 tsd-ae38804920a5
  3 303 tsd-ae38804920a5
  3 307 tsd-ae38804920a5
  3 308 tsd-ae38804920a5
  3 311 tsd-ae38804920a5
  3 313 tsd-ae38804920a5
  3 314 tsd-ae38804920a5
  3 318 tsd-ae38804920a5
  3 320 tsd-ae38804920a5
  3 321 tsd-ae38804920a5
  3 323 tsd-ae38804920a5
  3 344 tsd-ae38804920a5
  3 352 tsd-ae38804920a5
  3 353 tsd-ae38804920a5
  3 354 tsd-ae38804920a5
  3 357 tsd-ae38804920a5
  3 358 tsd-ae38804920a5
  3 361 tsd-ae38804920a5
  3 363 tsd-ae38804920a5
  3 364 tsd-ae38804920a5
  3 368 tsd-ae38804920a5
  3 370 tsd-ae38804920a5
  3 371 tsd-ae38804920a5
  3 373 tsd-ae38804920a5
  3 375 tsd-ae38804920a5
  3 382 tsd-ae38804920a5
  3 383 tsd-ae38804920a5
  3 384 tsd-ae38804920a5
  3 462 tsd-ae38804920a5
  3 477 tsd-ae38804920a5
  3 478 tsd-ae38804920a5
  3 560 tsd-ae38804920a5
  3 578 tsd-ae38804920a5
  3 582 tsd-ae38804920a5
  3 607 tsd-ae38804920a5
  3 647 tsd-ae38804920a5
  3 648 tsd-ae38804920a5
  3 649 tsd-ae38804920a5
  3 659 tsd-ae38804920a5
  3 869 tsd-ae38804920a5
  3 982 tsd-ae38804920a5
  3 984 tsd-ae38804920a5
  3 1016 tsd-ae38804920a5
  3 1025 tsd-ae38804920a5
  3 1028 tsd-ae38804920a5
  4 58 tsd-ae38804920a5
  4 62 tsd-ae38804920a5
  4 72 tsd-ae38804920a5
  4 76 tsd-ae38804920a5
  4 146 tsd-ae38804920a5
  4 268 tsd-ae38804920a5
  4 269 tsd-ae38804920a5
  4 275 tsd-ae38804920a5
  4 276 tsd-ae38804920a5
  4 279 tsd-ae38804920a5
  4 280 tsd-ae38804920a5
  4 283 tsd-ae38804920a5
  4 285 tsd-ae38804920a5
  4 286 tsd-ae38804920a5
  4 290 tsd-ae38804920a5
  4 292 tsd-ae38804920a5
  4 293 tsd-ae38804920a5
  4 295 tsd-ae38804920a5
  4 303 tsd-ae38804920a5
  4 307 tsd-ae38804920a5
  4 308 tsd-ae38804920a5
  4 311 tsd-ae38804920a5
  4 313 tsd-ae38804920a5
  4 314 tsd-ae38804920a5
  4 318 tsd-ae38804920a5
  4 320 tsd-ae38804920a5
  4 321 tsd-ae38804920a5
  4 323 tsd-ae38804920a5
  4 344 tsd-ae38804920a5
  4 352 tsd-ae38804920a5
  4 353 tsd-ae38804920a5
  4 354 tsd-ae38804920a5
  4 357 tsd-ae38804920a5
  4 358 tsd-ae38804920a5
  4 361 tsd-ae38804920a5
  4 363 tsd-ae38804920a5
  4 364 tsd-ae38804920a5
  4 368 tsd-ae38804920a5
  4 370 tsd-ae38804920a5
  4 371 tsd-ae38804920a5
  4 373 tsd-ae38804920a5
  4 375 tsd-ae38804920a5
  4 382 tsd-ae38804920a5
  4 383 tsd-ae38804920a5
  4 384 tsd-ae38804920a5
  4 462 tsd-ae38804920a5
  4 477 tsd-ae38804920a5
  4 478 tsd-ae38804920a5
  4 560 tsd-ae38804920a5
  4 578 tsd-ae38804920a5
  4 582 tsd-ae38804920a5
  4 607 tsd-ae38804920a5
  4 647 tsd-ae38804920a5
  4 648 tsd-ae38804920a5
  4 649 tsd-ae38804920a5
  4 659 tsd-ae38804920a5
  4 869 tsd-ae38804920a5
  4 982 tsd-ae38804920a5
  4 984 tsd-ae38804920a5
  4 1016 tsd-ae38804920a5
  4 1025 tsd-ae38804920a5
  4 1028 tsd-ae38804920a5
  3 47 tsd-0c3e22d8c308
  3 101 tsd-0c3e22d8c308
  3 124 tsd-0c3e22d8c308
  3 153 tsd-0c3e22d8c308
  3 160 tsd-0c3e22d8c308
  3 190 tsd-0c3e22d8c308
  3 208 tsd-0c3e22d8c308
  3 211 tsd-0c3e22d8c308
  3 213 tsd-0c3e22d8c308
  3 217 tsd-0c3e22d8c308
  3 218 tsd-0c3e22d8c308
  3 221 tsd-0c3e22d8c308
  3 225 tsd-0c3e22d8c308
  3 226 tsd-0c3e22d8c308
  3 229 tsd-0c3e22d8c308
  3 230 tsd-0c3e22d8c308
  3 233 tsd-0c3e22d8c308
  3 235 tsd-0c3e22d8c308
  3 236 tsd-0c3e22d8c308
  3 240 tsd-0c3e22d8c308
  3 242 tsd-0c3e22d8c308
  3 243 tsd-0c3e22d8c308
  3 245 tsd-0c3e22d8c308
  3 247 tsd-0c3e22d8c308
  3 251 tsd-0c3e22d8c308
  3 252 tsd-0c3e22d8c308
  3 255 tsd-0c3e22d8c308
  3 256 tsd-0c3e22d8c308
  3 259 tsd-0c3e22d8c308
  3 262 tsd-0c3e22d8c308
  3 263 tsd-0c3e22d8c308
  3 266 tsd-0c3e22d8c308
  3 271 tsd-0c3e22d8c308
  3 273 tsd-0c3e22d8c308
  3 345 tsd-0c3e22d8c308
  3 405 tsd-0c3e22d8c308
  3 429 tsd-0c3e22d8c308
  3 461 tsd-0c3e22d8c308
  3 603 tsd-0c3e22d8c308
  3 616 tsd-0c3e22d8c308
  3 618 tsd-0c3e22d8c308
  3 692 tsd-0c3e22d8c308
  3 750 tsd-0c3e22d8c308
  3 751 tsd-0c3e22d8c308
  3 758 tsd-0c3e22d8c308
  3 859 tsd-0c3e22d8c308
  3 1005 tsd-0c3e22d8c308
  3 1010 tsd-0c3e22d8c308
  3 1013 tsd-0c3e22d8c308
  4 47 tsd-0c3e22d8c308
  4 101 tsd-0c3e22d8c308
  4 124 tsd-0c3e22d8c308
  4 153 tsd-0c3e22d8c308
  4 160 tsd-0c3e22d8c308
  4 190 tsd-0c3e22d8c308
  4 208 tsd-0c3e22d8c308
  4 211 tsd-0c3e22d8c308
  4 213 tsd-0c3e22d8c308
  4 217 tsd-0c3e22d8c308
  4 218 tsd-0c3e22d8c308
  4 221 tsd-0c3e22d8c308
  4 225 tsd-0c3e22d8c308
  4 226 tsd-0c3e22d8c308
  4 229 tsd-0c3e22d8c308
  4 230 tsd-0c3e22d8c308
  4 233 tsd-0c3e22d8c308
  4 235 tsd-0c3e22d8c308
  4 236 tsd-0c3e22d8c308
  4 240 tsd-0c3e22d8c308
  4 242 tsd-0c3e22d8c308
  4 243 tsd-0c3e22d8c308
  4 245 tsd-0c3e22d8c308
  4 247 tsd-0c3e22d8c308
  4 251 tsd-0c3e22d8c308
  4 252 tsd-0c3e22d8c308
  4 255 tsd-0c3e22d8c308
  4 256 tsd-0c3e22d8c308
  4 259 tsd-0c3e22d8c308
  4 262 tsd-0c3e22d8c308
  4 263 tsd-0c3e22d8c308
  4 266 tsd-0c3e22d8c308
  4 271 tsd-0c3e22d8c308
  4 273 tsd-0c3e22d8c308
  4 345 tsd-0c3e22d8c308
  4 405 tsd-0c3e22d8c308
  4 429 tsd-0c3e22d8c308
  4 461 tsd-0c3e22d8c308
  4 603 tsd-0c3e22d8c308
  4 616 tsd-0c3e22d8c308
  4 618 tsd-0c3e22d8c308
  4 692 tsd-0c3e22d8c308
  4 750 tsd-0c3e22d8c308
  4 751 tsd-0c3e22d8c308
  4 758 tsd-0c3e22d8c308
  4 859 tsd-0c3e22d8c308
  4 1005 tsd-0c3e22d8c308
  4 1010 tsd-0c3e22d8c308
  4 1013 tsd-0c3e22d8c308
  3 2 tsd-bb606aaf0cba
  3 3 tsd-bb606aaf0cba
  3 4 tsd-bb606aaf0cba
  3 5 tsd-bb606aaf0cba
  3 7 tsd-bb606aaf0cba
  3 9 tsd-bb606aaf0cba
  3 10 tsd-bb606aaf0cba
  3 11 tsd-bb606aaf0cba
  3 14 tsd-bb606aaf0cba
  3 15 tsd-bb606aaf0cba
  3 18 tsd-bb606aaf0cba
  3 20 tsd-bb606aaf0cba
  3 21 tsd-bb606aaf0cba
  3 24 tsd-bb606aaf0cba
  3 25 tsd-bb606aaf0cba
  3 26 tsd-bb606aaf0cba
  3 27 tsd-bb606aaf0cba
  3 29 tsd-bb606aaf0cba
  3 32 tsd-bb606aaf0cba
  3 34 tsd-bb606aaf0cba
  3 35 tsd-bb606aaf0cba
  3 36 tsd-bb606aaf0cba
  3 37 tsd-bb606aaf0cba
  3 39 tsd-bb606aaf0cba
  3 41 tsd-bb606aaf0cba
  3 44 tsd-bb606aaf0cba
  3 45 tsd-bb606aaf0cba
  3 48 tsd-bb606aaf0cba
  3 49 tsd-bb606aaf0cba
  3 50 tsd-bb606aaf0cba
  3 54 tsd-bb606aaf0cba
  3 57 tsd-bb606aaf0cba
  3 59 tsd-bb606aaf0cba
  3 60 tsd-bb606aaf0cba
  3 64 tsd-bb606aaf0cba
  3 66 tsd-bb606aaf0cba
  3 67 tsd-bb606aaf0cba
  3 69 tsd-bb606aaf0cba
  3 71 tsd-bb606aaf0cba
  3 73 tsd-bb606aaf0cba
  3 74 tsd-bb606aaf0cba
  3 77 tsd-bb606aaf0cba
  3 81 tsd-bb606aaf0cba
  3 83 tsd-bb606aaf0cba
  3 84 tsd-bb606aaf0cba
  3 88 tsd-bb606aaf0cba
  3 91 tsd-bb606aaf0cba
  3 93 tsd-bb606aaf0cba
  3 95 tsd-bb606aaf0cba
  3 99 tsd-bb606aaf0cba
  3 103 tsd-bb606aaf0cba
  3 104 tsd-bb606aaf0cba
  3 106 tsd-bb606aaf0cba
  3 107 tsd-bb606aaf0cba
  3 108 tsd-bb606aaf0cba
  3 111 tsd-bb606aaf0cba
  3 113 tsd-bb606aaf0cba
  3 114 tsd-bb606aaf0cba
  3 116 tsd-bb606aaf0cba
  3 117 tsd-bb606aaf0cba
  3 118 tsd-bb606aaf0cba
  3 120 tsd-bb606aaf0cba
  3 121 tsd-bb606aaf0cba
  3 123 tsd-bb606aaf0cba
  3 125 tsd-bb606aaf0cba
  3 126 tsd-bb606aaf0cba
  3 127 tsd-bb606aaf0cba
  3 132 tsd-bb606aaf0cba
  3 133 tsd-bb606aaf0cba
  3 135 tsd-bb606aaf0cba
  3 136 tsd-bb606aaf0cba
  3 137 tsd-bb606aaf0cba
  3 138 tsd-bb606aaf0cba
  3 139 tsd-bb606aaf0cba
  3 142 tsd-bb606aaf0cba
  3 144 tsd-bb606aaf0cba
  3 149 tsd-bb606aaf0cba
  3 152 tsd-bb606aaf0cba
  3 155 tsd-bb606aaf0cba
  3 156 tsd-bb606aaf0cba
  3 158 tsd-bb606aaf0cba
  3 159 tsd-bb606aaf0cba
  3 161 tsd-bb606aaf0cba
  3 162 tsd-bb606aaf0cba
  3 163 tsd-bb606aaf0cba
  3 164 tsd-bb606aaf0cba
  3 165 tsd-bb606aaf0cba
  3 167 tsd-bb606aaf0cba
  3 170 tsd-bb606aaf0cba
  3 171 tsd-bb606aaf0cba
  3 173 tsd-bb606aaf0cba
  3 176 tsd-bb606aaf0cba
  3 177 tsd-bb606aaf0cba
  3 179 tsd-bb606aaf0cba
  3 183 tsd-bb606aaf0cba
  3 186 tsd-bb606aaf0cba
  3 187 tsd-bb606aaf0cba
  3 188 tsd-bb606aaf0cba
  3 189 tsd-bb606aaf0cba
  3 192 tsd-bb606aaf0cba
  3 198 tsd-bb606aaf0cba
  3 202 tsd-bb606aaf0cba
  3 204 tsd-bb606aaf0cba
  3 223 tsd-bb606aaf0cba
  3 249 tsd-bb606aaf0cba
  3 284 tsd-bb606aaf0cba
  3 329 tsd-bb606aaf0cba
  3 333 tsd-bb606aaf0cba
  3 334 tsd-bb606aaf0cba
  3 336 tsd-bb606aaf0cba
  3 349 tsd-bb606aaf0cba
  3 369 tsd-bb606aaf0cba
  3 390 tsd-bb606aaf0cba
  3 407 tsd-bb606aaf0cba
  3 411 tsd-bb606aaf0cba
  3 412 tsd-bb606aaf0cba
  3 414 tsd-bb606aaf0cba
  3 415 tsd-bb606aaf0cba
  3 416 tsd-bb606aaf0cba
  3 417 tsd-bb606aaf0cba
  3 418 tsd-bb606aaf0cba
  3 419 tsd-bb606aaf0cba
  3 421 tsd-bb606aaf0cba
  3 425 tsd-bb606aaf0cba
  3 426 tsd-bb606aaf0cba
  3 427 tsd-bb606aaf0cba
  3 428 tsd-bb606aaf0cba
  3 433 tsd-bb606aaf0cba
  3 434 tsd-bb606aaf0cba
  3 437 tsd-bb606aaf0cba
  3 439 tsd-bb606aaf0cba
  3 440 tsd-bb606aaf0cba
  3 451 tsd-bb606aaf0cba
  3 454 tsd-bb606aaf0cba
  3 456 tsd-bb606aaf0cba
  3 467 tsd-bb606aaf0cba
  3 485 tsd-bb606aaf0cba
  3 504 tsd-bb606aaf0cba
  3 508 tsd-bb606aaf0cba
  3 533 tsd-bb606aaf0cba
  3 593 tsd-bb606aaf0cba
  3 594 tsd-bb606aaf0cba
  3 598 tsd-bb606aaf0cba
  3 613 tsd-bb606aaf0cba
  3 614 tsd-bb606aaf0cba
  3 617 tsd-bb606aaf0cba
  3 623 tsd-bb606aaf0cba
  3 624 tsd-bb606aaf0cba
  3 627 tsd-bb606aaf0cba
  3 628 tsd-bb606aaf0cba
  3 631 tsd-bb606aaf0cba
  3 670 tsd-bb606aaf0cba
  3 674 tsd-bb606aaf0cba
  3 677 tsd-bb606aaf0cba
  3 683 tsd-bb606aaf0cba
  3 688 tsd-bb606aaf0cba
  3 697 tsd-bb606aaf0cba
  3 699 tsd-bb606aaf0cba
  3 701 tsd-bb606aaf0cba
  3 703 tsd-bb606aaf0cba
  3 706 tsd-bb606aaf0cba
  3 715 tsd-bb606aaf0cba
  3 722 tsd-bb606aaf0cba
  3 725 tsd-bb606aaf0cba
  3 726 tsd-bb606aaf0cba
  3 729 tsd-bb606aaf0cba
  3 734 tsd-bb606aaf0cba
  3 759 tsd-bb606aaf0cba
  3 769 tsd-bb606aaf0cba
  3 770 tsd-bb606aaf0cba
  3 789 tsd-bb606aaf0cba
  3 794 tsd-bb606aaf0cba
  3 801 tsd-bb606aaf0cba
  3 808 tsd-bb606aaf0cba
  3 809 tsd-bb606aaf0cba
  3 818 tsd-bb606aaf0cba
  3 844 tsd-bb606aaf0cba
  3 968 tsd-bb606aaf0cba
  3 973 tsd-bb606aaf0cba
  3 976 tsd-bb606aaf0cba
  3 997 tsd-bb606aaf0cba
  3 1058 tsd-bb606aaf0cba
  3 1060 tsd-bb606aaf0cba
  3 1062 tsd-bb606aaf0cba
  3 1066 tsd-bb606aaf0cba
  3 1088 tsd-bb606aaf0cba
  3 1164 tsd-bb606aaf0cba
  3 1910 tsd-bb606aaf0cba
  3 1911 tsd-bb606aaf0cba
  3 1918 tsd-bb606aaf0cba
  3 1988 tsd-bb606aaf0cba
  4 2 tsd-bb606aaf0cba
  4 3 tsd-bb606aaf0cba
  4 4 tsd-bb606aaf0cba
  4 5 tsd-bb606aaf0cba
  4 7 tsd-bb606aaf0cba
  4 9 tsd-bb606aaf0cba
  4 10 tsd-bb606aaf0cba
  4 11 tsd-bb606aaf0cba
  4 14 tsd-bb606aaf0cba
  4 15 tsd-bb606aaf0cba
  4 18 tsd-bb606aaf0cba
  4 20 tsd-bb606aaf0cba
  4 21 tsd-bb606aaf0cba
  4 24 tsd-bb606aaf0cba
  4 25 tsd-bb606aaf0cba
  4 26 tsd-bb606aaf0cba
  4 27 tsd-bb606aaf0cba
  4 29 tsd-bb606aaf0cba
  4 32 tsd-bb606aaf0cba
  4 34 tsd-bb606aaf0cba
  4 35 tsd-bb606aaf0cba
  4 36 tsd-bb606aaf0cba
  4 37 tsd-bb606aaf0cba
  4 39 tsd-bb606aaf0cba
  4 41 tsd-bb606aaf0cba
  4 44 tsd-bb606aaf0cba
  4 45 tsd-bb606aaf0cba
  4 48 tsd-bb606aaf0cba
  4 49 tsd-bb606aaf0cba
  4 50 tsd-bb606aaf0cba
  4 54 tsd-bb606aaf0cba
  4 57 tsd-bb606aaf0cba
  4 59 tsd-bb606aaf0cba
  4 60 tsd-bb606aaf0cba
  4 64 tsd-bb606aaf0cba
  4 66 tsd-bb606aaf0cba
  4 67 tsd-bb606aaf0cba
  4 69 tsd-bb606aaf0cba
  4 71 tsd-bb606aaf0cba
  4 73 tsd-bb606aaf0cba
  4 74 tsd-bb606aaf0cba
  4 77 tsd-bb606aaf0cba
  4 81 tsd-bb606aaf0cba
  4 83 tsd-bb606aaf0cba
  4 84 tsd-bb606aaf0cba
  4 88 tsd-bb606aaf0cba
  4 91 tsd-bb606aaf0cba
  4 93 tsd-bb606aaf0cba
  4 95 tsd-bb606aaf0cba
  4 99 tsd-bb606aaf0cba
  4 103 tsd-bb606aaf0cba
  4 104 tsd-bb606aaf0cba
  4 106 tsd-bb606aaf0cba
  4 107 tsd-bb606aaf0cba
  4 108 tsd-bb606aaf0cba
  4 111 tsd-bb606aaf0cba
  4 113 tsd-bb606aaf0cba
  4 114 tsd-bb606aaf0cba
  4 116 tsd-bb606aaf0cba
  4 117 tsd-bb606aaf0cba
  4 118 tsd-bb606aaf0cba
  4 120 tsd-bb606aaf0cba
  4 121 tsd-bb606aaf0cba
  4 123 tsd-bb606aaf0cba
  4 125 tsd-bb606aaf0cba
  4 126 tsd-bb606aaf0cba
  4 127 tsd-bb606aaf0cba
  4 132 tsd-bb606aaf0cba
  4 133 tsd-bb606aaf0cba
  4 135 tsd-bb606aaf0cba
  4 136 tsd-bb606aaf0cba
  4 137 tsd-bb606aaf0cba
  4 138 tsd-bb606aaf0cba
  4 139 tsd-bb606aaf0cba
  4 142 tsd-bb606aaf0cba
  4 144 tsd-bb606aaf0cba
  4 149 tsd-bb606aaf0cba
  4 152 tsd-bb606aaf0cba
  4 155 tsd-bb606aaf0cba
  4 156 tsd-bb606aaf0cba
  4 158 tsd-bb606aaf0cba
  4 159 tsd-bb606aaf0cba
  4 161 tsd-bb606aaf0cba
  4 162 tsd-bb606aaf0cba
  4 163 tsd-bb606aaf0cba
  4 164 tsd-bb606aaf0cba
  4 165 tsd-bb606aaf0cba
  4 167 tsd-bb606aaf0cba
  4 170 tsd-bb606aaf0cba
  4 171 tsd-bb606aaf0cba
  4 173 tsd-bb606aaf0cba
  4 176 tsd-bb606aaf0cba
  4 177 tsd-bb606aaf0cba
  4 179 tsd-bb606aaf0cba
  4 183 tsd-bb606aaf0cba
  4 186 tsd-bb606aaf0cba
  4 187 tsd-bb606aaf0cba
  4 188 tsd-bb606aaf0cba
  4 189 tsd-bb606aaf0cba
  4 192 tsd-bb606aaf0cba
  4 198 tsd-bb606aaf0cba
  4 202 tsd-bb606aaf0cba
  4 204 tsd-bb606aaf0cba
  4 223 tsd-bb606aaf0cba
  4 249 tsd-bb606aaf0cba
  4 284 tsd-bb606aaf0cba
  4 329 tsd-bb606aaf0cba
  4 333 tsd-bb606aaf0cba
  4 334 tsd-bb606aaf0cba
  4 336 tsd-bb606aaf0cba
  4 349 tsd-bb606aaf0cba
  4 369 tsd-bb606aaf0cba
  4 390 tsd-bb606aaf0cba
  4 407 tsd-bb606aaf0cba
  4 411 tsd-bb606aaf0cba
  4 412 tsd-bb606aaf0cba
  4 414 tsd-bb606aaf0cba
  4 415 tsd-bb606aaf0cba
  4 416 tsd-bb606aaf0cba
  4 417 tsd-bb606aaf0cba
  4 418 tsd-bb606aaf0cba
  4 419 tsd-bb606aaf0cba
  4 421 tsd-bb606aaf0cba
  4 425 tsd-bb606aaf0cba
  4 426 tsd-bb606aaf0cba
  4 427 tsd-bb606aaf0cba
  4 428 tsd-bb606aaf0cba
  4 433 tsd-bb606aaf0cba
  4 434 tsd-bb606aaf0cba
  4 437 tsd-bb606aaf0cba
  4 439 tsd-bb606aaf0cba
  4 440 tsd-bb606aaf0cba
  4 451 tsd-bb606aaf0cba
  4 454 tsd-bb606aaf0cba
  4 456 tsd-bb606aaf0cba