# File generated by Flopy version 3.5.0 on 11/06/2024 at 09:56:31.
BEGIN options
  BUDGET  FILEOUT  gwf.bud
  HEAD  FILEOUT  gwf.hds
END options

BEGIN period  1
  SAVE  head  all
  SAVE  budget  all
  PRINT  head  all
  PRINT  budget  all
END period  1

