# File generated by Flopy version 3.5.0 on 11/06/2024 at 09:56:28.
BEGIN options
  LENGTH_UNITS  meters
END options

BEGIN dimensions
  NLAY  4
  NCPL  4421
  NVERT  2417
END dimensions

BEGIN griddata
  top
    INTERNAL  FACTOR  1.0
         8.65062000       6.12695093       6.10432768       6.08886744       7.24470270       4.79481690       6.77880762       6.03253015       7.85651438       6.17148473       6.19378215       4.10030612       4.48572595       6.16485571       6.12982313       4.92996753       5.86882546       6.20956595       4.33078318       6.19429342
         6.23859571       7.25637611       4.72345066       8.78040831       8.38736351       8.53449229       6.49550637       5.96901686       5.50331739       8.24562041       6.13483127       8.60867027       5.53345275       5.02638040       7.40677904       7.01628964       8.18743327       4.72991031       7.23448585       6.44299263
         7.86336128       6.04731841       5.37081336       7.52022657       8.32126423       7.24292289       4.89698002       8.70012299       6.13570089       5.96335903       4.04941844       3.92272262       6.01225428       6.06406275       3.19660680       3.24155421       6.12516548       3.17207972       6.01772451       5.96210280
         3.44679740       3.43783636       3.82421269       5.91062958       3.77544843       5.81441236       5.88401297       3.50407991       5.85980890       4.60364761       6.17259624       3.14540209       5.77032162       5.69831949       2.99005414       3.10029996       5.64528775       5.44264496       3.00577307       3.25271239
         5.79639480       3.33157139       5.37181706       5.47424018       5.26132044       3.55034788       5.17060517       5.28713447       4.63590241       5.14985543       5.40091695       5.20256697       5.43748804       5.22662022       5.21112064       3.35029036       4.99154235       3.10611584       8.63585253       4.03287929
         6.62382994       6.50007070       6.19537862       6.11755959       6.07607256       5.63977103       6.23108920       6.28331245       5.89603131       6.02869830       5.49327976       7.27613429       5.97282170       5.95296428       5.79919675       6.60775841       6.13626085       6.10743959       6.18586589       5.91023945
         6.17397510       5.95409256       5.62397113       4.92134877       6.41362339       6.35471740       6.44318046       4.59713325       6.64372226       6.31679148       7.12614833       6.36888616       8.66874359       5.79179139       6.34949344       6.31720414       6.39509566       6.33043610       6.39635889       3.95481571
         6.34333753       6.36752956       5.61619267       6.26674011       4.14964239       4.31338453       7.06855617       6.30663839       5.60727896       4.12236877       8.79199410       5.74344630       4.91235608       7.39976862       5.00517449       5.59166519       5.36526183       5.81068211       5.60490292       6.92768478
         6.50600085       6.97374955       5.16459274       5.54384065       6.32465855       8.64776360       6.16585148       5.77783801       5.03617951       6.90788039       5.89665186       8.81618980       5.80889558       4.78955042       5.24380796       5.57653294       5.68000882       4.03363629       6.31845646       5.34285934
         7.17504816       6.33150417       5.50531968       4.77515286       4.73675417       5.41164526       5.89794525       6.14693338       5.47804270       6.46339557       5.16629282       5.46545020       3.97413566       5.88847267       3.89756932       4.77204902       4.57867072       8.12241252       3.37371687       5.20216473
         4.51857785       5.81810493       6.05298574       4.95900484       4.66713747       4.90505803       4.94694150       4.89345972       4.86083072       5.21414592       4.91007721       5.23162436       5.04927636       5.39290491       4.78072190       4.80529736       4.97536742       4.91068660       4.39373891       4.57673575
         4.91073395       4.61935258       5.05721571       4.78849747       5.26510214       5.12888006       4.58026181       4.58503024       5.54105282       5.87526327       4.14108154       4.28214747       5.31979653       4.47338201       5.93452380       5.74976671       5.22600300       4.04552894       5.56771675       6.74093766
         5.49740653       5.94872697       6.59937584       5.68357378       5.87936120       5.04684025       6.33002022       4.11965834       5.14444028       5.08172177       7.10514567       6.51375757       5.81444935       7.76340265       6.87247288       7.00265633       5.55912230       5.72296729       6.73933196       4.81275600
         5.31964995       7.08820182       6.96824637       5.16763311       4.64843205       6.79501529       4.47572688       6.75010721       5.45636300       5.28673471       6.99973532       5.45034059       6.94364188       4.44901715       5.05393680       5.26852865       5.24301721       4.59044698       4.55026413       4.62327115
         5.10244700       8.09754590       5.67547318       5.33452665       4.08085928       4.15197210       5.51601911       3.75256538       3.32326815       3.77346156       3.85665308       3.68029267       3.95676122       2.97941813       3.83477777       5.94558294       4.07966393       4.03681586       5.49936000       3.34596000
         5.19749109       3.51814470       3.27685223       3.87391345       4.55737744       4.48552278       3.23907590       3.22628127       4.58356797       4.54746650       3.28928166       4.54187980       3.19344492       3.20738857       4.14895050       4.24138110       3.93687500       3.17472028       4.06926224       3.15689836
         3.16845516       4.03286130       3.20783709       3.94522975       3.30368038       4.57681890       4.15254684       4.12428980       6.20194641       7.41389070       4.13061958       4.13837606       5.99315199       5.48560088       4.08294641       6.29545704       4.15622584       3.93615086       4.11654402       3.81791720
         7.10992080       4.04528471       4.92378012       3.54092170       5.55960058       4.12529261       4.07426232       7.34765288       7.41914542       4.14347470       4.15043752       6.45312581       3.13677059       3.12765459       4.99521859       4.92760722       3.12539802       3.12026691       4.70118963       4.83877104
         3.13588460       4.76534846       3.08875070       3.09893596       4.56427753       4.75095807       4.64279805       3.07496391       7.73474918       3.05231244       3.08236461       4.75563463       3.11862771       4.68012529       3.15151280       4.72329850       3.72306373       3.59083981       4.73145593       4.22397654
         3.86203805       3.15478638       3.38928511       3.10618245       3.35027113       4.18289050       3.10417866       3.08825287       4.76791616       5.54643778       5.44214442       3.21502661       4.51616005       3.14530580       4.29052882       3.16228624       3.34954417       6.61942299       4.15140519       3.72113873
         3.74468417       5.67941887       3.16506720       4.69768527       6.17473118       6.03049764       6.02128919       4.36235708       7.81547922       5.59790673       5.74402830       5.80127203       5.63821283       6.43044682       5.65289500       5.71885091       5.53588893       6.26615088       6.21677774       6.27551932
         5.58965309       5.91979897       8.29340342       5.06572339       6.55786577       5.49646469       8.67403004       5.48466994       5.03168292       5.71755091       4.76974862       4.63713635       7.35590642       7.34814032       5.38384614       4.80331716       7.45711112       5.40596721       6.23766622       7.27970486
         3.08780429       3.26137777       5.52838923       7.72303387       3.12825335       6.46850207       3.34179334       8.60753106       3.30410888       5.69527607       4.98682453       3.61402082       7.52518570       7.63015917       7.44070032       6.94888050       4.93108195       3.92394172       7.77306469       7.79151986
         5.08916333       6.22058947       4.74958540       7.68873514       4.62780371       7.83682393       6.04206984       6.11787755       7.73205071       6.95191581       5.35072040       3.13154666       5.44145090       5.44833731       5.36464070       2.76542898       3.11156108       3.47421714       5.29382494       7.43473212
         8.49766895       5.93731896       5.15809816       4.75633044       5.49054062       6.27834979       4.18714037       3.93378911       7.89731709       4.24293205       4.50860573       4.01983140       5.19135507       5.14007352       5.07619621       6.03590504       5.04805837       6.10500760       4.93173265       4.00866168
         5.68366793       5.13080285       4.93504506       6.24683426       6.27750106       5.20114050       3.90177339       7.36424295       3.67172014       3.41038659       5.79657837       5.66434472       6.29432120       4.49953179       6.14679781       6.23169095       4.42537463       5.78325196       3.76208038       5.06391624
         4.57345955       4.65770366       5.47077463       4.67658938       5.32897569       4.53919173       4.99622359       5.30709856       4.89472312       5.68624969       6.17431284       5.52359105       7.59490329       6.08902501       6.50660520       6.49931495       6.35754105       4.13563193       3.93062418       6.59287019
         4.07063197       6.09757402       6.02071881       4.76258377       5.66714122       5.06652047       6.35820602       5.10950136       5.59225862       6.05008974       4.53018690       6.43658094       4.76877192       6.37764261       4.05367510       6.17090300       6.95082998       4.11643491       3.70774834       3.32062280
         4.20040503       3.94649723       2.89462183       6.02874562       4.79649077       3.27892113       3.05537080       3.21467668       3.53735479       3.95857935       3.14582375       3.02740296       3.23040860       3.12891447       3.08167476       3.48252694       3.07657009       6.10687792       3.27652625       3.01290561
         5.99253068       3.14018557       4.56122607       5.90778651       4.53683551       3.94101442       3.94782915       5.81699931       4.39478560       4.36972614       5.15597593       4.21151999       6.12619679       5.60454331       4.51871373       4.41593818       4.63255833       6.26687766       4.65052530       4.50628901
         4.13999280       4.51504526       5.63459207       4.18442340       7.50889272       3.81854619       6.59612851       3.87108282       4.12760493       3.05417496       6.32125806       4.65310697       6.02467855       5.96955929       5.46403051       6.94065935       5.56821244       5.26033209       5.57925496       5.62766545
         7.65051171       5.73685951       6.10306887       6.93075745       5.67075977       5.50759014       6.14365361       8.57674805       5.67317758       5.80250243       8.33565272       5.76440842       5.69609369       4.10697515       4.08531173       4.27897623       5.24324353       4.07398400       4.18840301       4.72674442
         5.30877976       4.10932702       5.49899430       5.27712662       3.99357024       4.03082676       4.85495199       3.34804553       3.16068366       4.15241908       3.20120465       4.08689651       4.13750820       4.05060439       4.87941857       4.15002620       2.99236028       4.18058912       5.90107953       3.97020173
         5.04346925       4.10205216       4.08381541       4.09492711       4.92566493       4.07643420       4.05393851       4.62197452       4.07772078       6.38064870       4.14029992       4.12372757       5.97298949       7.89729027       3.24643173       4.11008284       5.55892582       4.12732787       5.83588706       4.10819944
         4.02980041       5.99011776       5.27657955       4.10239671       5.31486536       3.93963090       4.96636286       5.49546671       3.98258045       4.22545631       7.72349493       4.97305461       3.94594430       6.55679644       4.02678854       3.98501945       8.71009155       6.84731406       6.42346720       3.96699352
         6.24168026       3.95468725       6.20065268       4.00621574       3.96629640       5.71992382       8.68113748       4.03329316       4.01391283       6.96948821       3.55474888       6.09419940       4.65732746       4.66962257       7.21571794       7.19169881       4.64681430       4.52475187       7.22246261       7.33285356
         4.67909615       7.51285838       4.76734255       4.74482736       5.52041907       5.52077214       6.85996502       4.73053762       5.53098478       4.74717148       5.29098017       4.69031941       4.68936467       5.84582741       5.72632184       4.76240978       4.53981401       4.53579431       3.87544748       5.05953069
         4.60304741       4.57401833       3.61942984       4.14755478       4.57604047       3.43738557       4.62071882       4.49527510       5.14895196       4.89778266       4.93461541       4.53959910       4.94144112       4.57044789       4.94742195       4.56865117       4.52643158       4.94283163       5.07596917       4.62178844
         4.76593289       5.42775924       4.57136068       4.76459910       5.57174598       5.34276546       5.24367556       4.77458565       5.92007257       5.72187104       4.45632663       5.74613714       4.19489166       4.21874302       7.59549998       5.05865108       4.77705931       4.26746073       4.09638081       5.48489725
         3.39001967       4.31964627       4.38367248       5.02903098       4.72534244       4.48821260       4.77312481       4.76815973       5.90845755       6.17381815       4.75697683       4.76922232       5.38892531       5.50138543       4.78717279       5.87610389       4.72067848       4.69243981       4.99007164       5.14502486
         5.53177132       4.74263683       5.62000663       5.28769375       5.53397505       4.74714970       4.76003560       5.64668960       6.29936682       4.72681105       4.77086114       5.86750673       5.48717973       4.56175218       4.14124438       8.63056810       4.13997722       5.87562440       3.70497364       4.78409569
         4.34684857       4.21294689       4.12544537       4.02185100       4.11928768       6.28880886       6.12883482       3.35610098       3.47019341       4.55569012       4.54083447       4.54791035       4.54855010       4.60045199       4.59365333       3.93916851       4.66690074       4.04376919       3.95611921       3.96383558
         3.97808019       5.95671170       4.69514374       6.17671435       6.19911364       4.05894468       4.06036859       4.20251471       3.35393888       4.44727259       4.66879786       3.99708639       4.13989022       4.08175084       4.00233724       4.05064837       4.08658882       7.26938792       6.65036435       4.59617488
         4.39195200       4.78643957       4.76662478       8.32432284       5.00861618       6.08886910       6.24128226       3.64993683       3.60296781       4.53533882       3.08852568       4.25685084       4.48372704       3.01984850       2.84621620       2.89416859       2.76504408       4.40669997       4.83472639       5.28808171
         4.78125934       4.79837878       4.70429134       5.41138690       6.63645408       4.79052753       4.19565426       5.75778914       6.11872390       5.47786429       5.08803997       4.69895874       4.10630531       5.74903946       4.96652107       4.63072622       4.74720630       3.48911667       3.88934544       4.47506407
         4.31528216       4.40782573       4.43245380       5.74512701       5.19777042       3.11067211       2.94239432       3.09237609       3.24707121       5.04870099       5.26635476       4.09318703       4.26229823       6.89812360       7.43674316       6.19883202       6.09202478       5.64256711       5.44880981       6.92691787
         5.41495764       4.18365391       4.88942925       4.96004262       4.83762766       4.52851702       4.28464583       3.85296537       3.64847347       3.17737632       3.23012320       5.27497190       5.15633176       5.55643057       4.74478329       5.66240958       5.98882741       6.00752924       5.15274166       5.13340353
         5.15543387       4.76251185       5.20178469       4.66727541       4.64651552       4.50578977       3.72093129       2.85285889       3.06815270       4.97422621       4.98680697       5.02332906       5.02787160       5.17616649       5.06894533       5.33615674       5.25177579       3.63588432       3.01837205       2.73936873
         3.14497176       3.31174542       4.12824499       2.87301002       2.87978166       3.77196005       3.58865990       6.11584170       6.02988213       5.95748173       5.96263827       5.93145386       6.07580124       6.18437406       8.27475485       5.65320682       5.59938828       7.28060826       7.83000398       3.65003110
         3.23418483       3.24797387       3.30707821       3.12861267       3.14478917       3.63341745       3.64633707       4.44109625       4.27579090       4.62599780       4.41478667       4.94051589       5.23622882       5.91427654       7.63476526       5.60380609       5.85007700       5.98251480       6.11463512       7.14644403
         6.32893551       7.81900776       7.74291384       6.38909562       6.26985843       5.94152393       7.40161578       7.03635684       7.86378041       6.27204015       6.94441977       6.85965880       6.87806115       4.12955906       4.07058729       4.42818249       4.30854837       7.74300072       4.96198427       4.26613910
         4.15662012       3.75152410       3.53569590       3.20727151       3.16570434       3.25897571       3.03119894       3.14221631       3.21511797       3.17359744       3.15594994       3.44154736       3.42804978       4.87406944       5.12203420       3.81365034       4.40961951       5.16208080       5.07383363       4.67725691
         4.73735032       5.78079843       5.53731596       5.63436770       5.43872060       4.55516804       4.49567553       4.93487795       4.37669915       3.95668627       4.05097178       5.68490233       7.90770401       5.53921267       5.49340139       5.95046943       6.58476491       5.68011956       5.46211808       6.07026975
         6.02809229       7.58117833       7.41815054       6.62781314       7.16020403       5.10657922       5.08820724       5.10368540       5.19844257       4.29258378       4.45024775       4.00441389       4.18887243       4.45691856       4.19292291       4.61012447       4.60810637       5.89431167       5.79046098       5.55213400
         5.40099325       3.97280621       3.58261783       4.06223690       4.10143173       3.87123980       4.08836543       8.11151112       8.22731083       4.81540021       4.96192314       4.71090498       4.74601108       3.62626468       3.69837329       6.22902747       6.19725265       5.91564360       6.01837852       6.12329990
         6.03718853       6.88274532       6.01156859       4.83519992       4.26766982       5.33140159       5.16020153       4.56920452       5.05391067       5.26108549       4.79607142       5.00783891       5.36701671       5.50863986       5.24510678       5.63392190       5.81762887       4.45381576       4.56008037       5.33369930
         4.61093792       5.05633867       5.12960614       4.65579716       4.73203232       4.77378917       4.91962067       5.08098906       4.80488126       4.90336181       3.72982798       4.95650427       4.80806750       4.41457757       5.27618397       4.85638205       4.29992835       3.81139339       4.54341102       4.62766325
         4.54267328       4.60670411       4.59185410       5.10392413       5.08804668       5.12493271       5.15177489       5.09779477       5.28134630       5.45419285       5.14627766       5.21616524       5.38114944       2.72928326       2.81258650       2.99554438       3.15199513       3.14784021       2.94825911       3.04456656
         2.87705244       2.90680621       3.04996485       6.04075436       5.96225786       6.05087498       7.15817953       7.58419825       7.68992226       3.27147638       3.29006622       3.34572551       3.29242746       5.26395073       3.14521069       4.89151770       4.87073544       5.93331562       5.82230158       5.85316518
         5.84714851       6.24393028       6.20297716       6.05967116       6.18432034       5.89435731       6.13724334       6.11054132       6.04476416       7.15003627       7.55822293       7.15656194       8.09660022       6.87555021       5.98891543       4.39885902       3.74117836       3.26521172       3.20595186       3.42727978
         3.30513254       3.25028690       3.16523732       4.90423579       4.85116266       4.80343327       4.52836839       5.64550905       5.55459494       6.15751308       5.58166603       5.70715936       5.34613434       6.98980579       6.78223154       6.28604044       5.31597727       7.01878484       5.59628500       4.59134251
         4.48859208       5.01869562       4.79912212       4.55101491       4.53555032       6.42326765       5.61801781       3.93505535       3.88851158       4.15901416       2.69989123       4.10425093       3.36493169       4.32959966       5.53658565       5.79708162       6.12735307       5.26805229       5.91194231       6.02859508
         6.20961889       7.64232854       8.80425608       5.16763522       5.08211859       5.34122403       5.16604340       4.98756315       5.04918368       4.87095043       5.55439312       5.77201043       5.53288084       5.09411820       5.28388288       4.69502515       4.59597927       5.11148472       4.94993028       4.95429399
         5.04521243       4.94981336       4.98857205       5.26427953       5.10277480       7.12716555       5.26322027       3.23390802       3.23133304       3.75190274       3.46342803       3.18505498       3.78806497       3.27475853       3.28874172       5.40227979       4.67329223       5.40600085       5.26929233       6.15486550
         6.12309566       5.97338446       5.88141566       5.79110588       6.07718745       7.66570280       7.77995343       5.28650641       5.20304550       7.31644174       6.37657504       5.71558693       5.11929220       4.38188001       4.06253305       4.53598524       4.26417154       4.04730134       3.69163060       3.05648555
         3.24709585       5.77270366       5.86664235       8.09471354       8.45338021       4.94129871       5.04908026       4.93483278       5.07073000       5.20606078       4.90249876       5.24503507       4.91983429       5.08413521       4.36927159       5.10206646       4.87081084       3.92857212       3.52069393       5.43388472
         6.43633256       5.49485089       5.31610851       5.66619669       5.55365268       5.34639991       5.39609469       5.16284138       5.63297486       6.02816511       5.62766592       5.91655367       5.75721225       5.29367652       5.52782367       5.24813490       5.33921472       5.38916818       5.59479713       5.72751308
         6.01190297       5.10136410       4.93914731       5.53898628       6.05087094       5.41197431       5.27222780       5.66134467       5.69196235       5.46937766       5.20204519       5.49607544       5.58669827       5.62091379       5.58880606       5.71212018       6.47314501       5.44082178       5.35271628       6.26826643
         5.43042652       3.36980949       3.65808354       5.37596951       5.20558714       5.20485535       5.26295350       4.89054339       5.18082626       6.24138280       6.18211244       5.62822726       5.60731358       6.05483421       6.01254321       5.24978454       5.20996563       7.62715014       7.23265756       7.38225628
         6.02954447       6.30428524       6.53075309       6.12348902       5.85096531       4.08841634       4.01341669       4.27564196       4.26793937       4.46253379       4.60735078       4.39834184       4.80224355       4.06866630       4.31546885       4.74330045       4.94121219       4.27521422       4.33101405       4.38071098
         4.69067311       4.07363256       4.04414075       3.15277482       2.89505099       4.24653820       4.09508912       4.41824925       4.36080322       5.00236126       4.37060003       3.81577127       3.76664443       6.90440200       4.20702396       6.04897615       6.00299322       6.81658060       7.37920767       8.33738121
         7.48568828       4.78087717       4.88334535       5.01691989       4.65692629       6.74523230       5.57116205       5.97721361       5.36634161       5.44953434       5.41520057       5.71327788       5.96516186       5.58193705       5.06079231       5.52727337       2.84584955       5.81306699       5.89034767       5.17046062
         5.47391000       6.88379398       6.24142686       5.94012264       7.13118777       6.16752631       6.44561176       5.80454208       6.12974361       6.15695548       6.59392909       6.81861668       6.52792052       5.84918577       6.01630060       6.25743435       7.45884689       6.44131788       6.75384207       7.00319482
         7.02896872       5.55149634       5.55381685       3.26746773       3.36635564       3.34716167       3.32667551       4.43841837       4.60939507       5.64699278       5.63355903       5.18166890       5.51100409       3.50629500       4.90081359       4.82396143       4.75613967       5.77529085       6.00884918       5.16713067
         5.54957765       5.92436680       5.43986837       5.39852229       5.03574472       5.40633231       5.57269548       5.93903447       5.33166519       5.20739608       7.21296645       5.44862045       5.56503113       5.57577454       5.40925544       4.20810616       3.52063564       3.95433661       4.07034859       4.92687065
         4.32437329       4.24848776       4.84524257       3.79306172       2.90227666       8.43920448       7.90056559       8.23281248       7.57613090       7.96943580       7.95551682       8.30796244       8.45253412       7.57294982       8.03623271       8.32839264       8.40636040       7.41933730       7.91231426       8.71289312
         8.68752901       5.64431410       5.89886382       5.88353927       5.93544044       6.41349861       5.89739593       5.97038530       2.62106955       6.09489007       6.31149931       5.99793976       6.14265251       6.65266462       6.63578851       6.86386732       7.62729790       5.76542632       6.03397195       5.61516226
         5.38937428       5.28904865       5.19160249       5.14785495       4.89136215       5.20799094       5.24644643       5.19693063       5.19221596       5.64693030       6.40550756       4.31083336       4.45959566       4.52625974       4.26597353       4.37126349       4.36006313       2.85151017       3.01081543       8.00123888
         7.36907020       7.57436705       6.26915937       8.09471065       7.43883015       5.79599026       5.88131798       6.03884436       6.45594773       5.85188845       5.92441537       5.64944678       5.83102992       5.99305353       5.93525300       5.38324069       4.94209042       5.80468402       6.14951094       5.59825437
         5.72449169       5.60609060       5.46054903       5.53705144       5.54070542       5.58999746       5.55945888       5.36204614       5.72443840       5.60160354       4.93261543       5.44574768       4.97355432       4.36581933       4.51279377       4.24770653       4.09206468       3.36790741       4.44019031       4.05090751
         3.97300198       3.70042602       2.77125165       3.50320180       4.07606177       4.20390972       3.06858725       3.80121874       4.06053635       4.19945921       4.27896228       3.22422956       3.51985312       3.78359316       3.65726758       4.94678374       4.29576035       4.43806027       4.46532176       4.20522354
         4.18300661       4.19244127       3.82093626       4.11229240       4.12472417       3.73625508       3.97088353       4.14153690       4.27178527       4.11492862       3.67630193       3.96933144       4.22357643       4.11959906       4.81459601       2.56031419       2.99511299       5.41017737       5.15192070       5.56852738
         5.58180909       5.54637312       5.59091582       7.33706902       7.14414506       5.61247483       5.57269401       5.59454751       5.60563033       5.24905620       5.18636437       5.45098440       5.38640373       5.07584532       4.87523756       5.26691510       5.05744275       5.37644480       5.42877258       4.30476427
         3.98076056       3.06626204       3.25841279       4.19753871       4.31907794       3.89710125       4.01698529       3.28844519       4.03374274       4.70479799       4.57181361       4.18190651       4.07106395       3.71008090       4.03250697       3.28464138       3.32578480       2.84882707       3.19196070       5.59904968
         5.53684165       5.38780699       5.47796424       5.26937832       4.93453245       4.97540101       5.15502692       4.92991555       4.87098405       5.02869253       5.19406872       4.00142553       3.88674253       3.78814830       2.63167915       3.32357766       3.64433002       4.23742093       4.25655068       3.67873701
         4.16233899       3.93247611       3.79653976       5.27261883       5.44258232       5.07819147       4.84345467       5.25131308       5.05442996       5.02239834       4.95483628       5.07733611       5.44249717       5.16738570       5.00790360       6.48078338       5.93705432       3.69361383       3.39371806       3.47029271