# File generated by Flopy version 3.5.0 on 11/06/2024 at 09:56:28.
BEGIN options
  SAVE_FLOWS
END options

BEGIN packages
  disv6  gwf.dis  disv
  npf6  gwf.npf  npf
  sto6  gwf.sto  sto
  ic6  gwf.ic  ic
  chd6  gwf.chd  chd-1
  riv6  gwf.riv  riv-1
  rch6  gwf.rch  rch-1
  evt6  gwf.evt  evt-1
  oc6  gwf.oc  oc
END packages

