# File generated by Flopy version 3.5.0 on 11/06/2024 at 09:56:29.
BEGIN options
  FIXED_CELL
  TS6  FILEIN  gwf.rch.ts
  TS6  FILEIN  gwf.rch0.ts
  TS6  FILEIN  gwf.rch1.ts
END options

BEGIN dimensions
  MAXBOUND  4420
END dimensions

BEGIN period  1
  1 12 tsd-c7025286ebbc
  1 13 tsd-c7025286ebbc
  1 16 tsd-c7025286ebbc
  1 19 tsd-c7025286ebbc
  1 51 tsd-c7025286ebbc
  1 52 tsd-c7025286ebbc
  1 100 tsd-c7025286ebbc
  1 145 tsd-c7025286ebbc
  1 174 tsd-c7025286ebbc
  1 178 tsd-c7025286ebbc
  1 184 tsd-c7025286ebbc
  1 185 tsd-c7025286ebbc
  1 193 tsd-c7025286ebbc
  1 195 tsd-c7025286ebbc
  1 196 tsd-c7025286ebbc
  1 197 tsd-c7025286ebbc
  1 201 tsd-c7025286ebbc
  1 209 tsd-c7025286ebbc
  1 215 tsd-c7025286ebbc
  1 216 tsd-c7025286ebbc
  1 219 tsd-c7025286ebbc
  1 220 tsd-c7025286ebbc
  1 222 tsd-c7025286ebbc
  1 224 tsd-c7025286ebbc
  1 227 tsd-c7025286ebbc
  1 228 tsd-c7025286ebbc
  1 231 tsd-c7025286ebbc
  1 232 tsd-c7025286ebbc
  1 234 tsd-c7025286ebbc
  1 238 tsd-c7025286ebbc
  1 248 tsd-c7025286ebbc
  1 265 tsd-c7025286ebbc
  1 297 tsd-c7025286ebbc
  1 298 tsd-c7025286ebbc
  1 315 tsd-c7025286ebbc
  1 316 tsd-c7025286ebbc
  1 317 tsd-c7025286ebbc
  1 322 tsd-c7025286ebbc
  1 324 tsd-c7025286ebbc
  1 327 tsd-c7025286ebbc
  1 328 tsd-c7025286ebbc
  1 331 tsd-c7025286ebbc
  1 332 tsd-c7025286ebbc
  1 335 tsd-c7025286ebbc
  1 337 tsd-c7025286ebbc
  1 338 tsd-c7025286ebbc
  1 339 tsd-c7025286ebbc
  1 342 tsd-c7025286ebbc
  1 346 tsd-c7025286ebbc
  1 347 tsd-c7025286ebbc
  1 350 tsd-c7025286ebbc
  1 351 tsd-c7025286ebbc
  1 362 tsd-c7025286ebbc
  1 399 tsd-c7025286ebbc
  1 404 tsd-c7025286ebbc
  1 465 tsd-c7025286ebbc
  1 500 tsd-c7025286ebbc
  1 524 tsd-c7025286ebbc
  1 538 tsd-c7025286ebbc
  1 539 tsd-c7025286ebbc
  1 541 tsd-c7025286ebbc
  1 544 tsd-c7025286ebbc
  1 553 tsd-c7025286ebbc
  1 555 tsd-c7025286ebbc
  1 569 tsd-c7025286ebbc
  1 587 tsd-c7025286ebbc
  1 600 tsd-c7025286ebbc
  1 601 tsd-c7025286ebbc
  1 609 tsd-c7025286ebbc
  1 634 tsd-c7025286ebbc
  1 635 tsd-c7025286ebbc
  1 636 tsd-c7025286ebbc
  1 638 tsd-c7025286ebbc
  1 639 tsd-c7025286ebbc
  1 640 tsd-c7025286ebbc
  1 642 tsd-c7025286ebbc
  1 645 tsd-c7025286ebbc
  1 646 tsd-c7025286ebbc
  1 650 tsd-c7025286ebbc
  1 652 tsd-c7025286ebbc
  1 653 tsd-c7025286ebbc
  1 654 tsd-c7025286ebbc
  1 655 tsd-c7025286ebbc
  1 656 tsd-c7025286ebbc
  1 658 tsd-c7025286ebbc
  1 660 tsd-c7025286ebbc
  1 662 tsd-c7025286ebbc
  1 663 tsd-c7025286ebbc
  1 666 tsd-c7025286ebbc
  1 667 tsd-c7025286ebbc
  1 669 tsd-c7025286ebbc
  1 671 tsd-c7025286ebbc
  1 672 tsd-c7025286ebbc
  1 676 tsd-c7025286ebbc
  1 678 tsd-c7025286ebbc
  1 680 tsd-c7025286ebbc
  1 681 tsd-c7025286ebbc
  1 684 tsd-c7025286ebbc
  1 686 tsd-c7025286ebbc
  1 689 tsd-c7025286ebbc
  1 690 tsd-c7025286ebbc
  1 693 tsd-c7025286ebbc
  1 695 tsd-c7025286ebbc
  1 696 tsd-c7025286ebbc
  1 700 tsd-c7025286ebbc
  1 702 tsd-c7025286ebbc
  1 704 tsd-c7025286ebbc
  1 705 tsd-c7025286ebbc
  1 708 tsd-c7025286ebbc
  1 709 tsd-c7025286ebbc
  1 739 tsd-c7025286ebbc
  1 743 tsd-c7025286ebbc
  1 744 tsd-c7025286ebbc
  1 746 tsd-c7025286ebbc
  1 763 tsd-c7025286ebbc
  1 764 tsd-c7025286ebbc
  1 768 tsd-c7025286ebbc
  1 771 tsd-c7025286ebbc
  1 773 tsd-c7025286ebbc
  1 774 tsd-c7025286ebbc
  1 778 tsd-c7025286ebbc
  1 779 tsd-c7025286ebbc
  1 782 tsd-c7025286ebbc
  1 783 tsd-c7025286ebbc
  1 786 tsd-c7025286ebbc
  1 791 tsd-c7025286ebbc
  1 792 tsd-c7025286ebbc
  1 797 tsd-c7025286ebbc
  1 798 tsd-c7025286ebbc
  1 802 tsd-c7025286ebbc
  1 806 tsd-c7025286ebbc
  1 807 tsd-c7025286ebbc
  1 810 tsd-c7025286ebbc
  1 817 tsd-c7025286ebbc
  1 821 tsd-c7025286ebbc
  1 822 tsd-c7025286ebbc
  1 823 tsd-c7025286ebbc
  1 824 tsd-c7025286ebbc
  1 825 tsd-c7025286ebbc
  1 836 tsd-c7025286ebbc
  1 837 tsd-c7025286ebbc
  1 838 tsd-c7025286ebbc
  1 839 tsd-c7025286ebbc
  1 840 tsd-c7025286ebbc
  1 841 tsd-c7025286ebbc
  1 843 tsd-c7025286ebbc
  1 846 tsd-c7025286ebbc
  1 847 tsd-c7025286ebbc
  1 850 tsd-c7025286ebbc
  1 851 tsd-c7025286ebbc
  1 852 tsd-c7025286ebbc
  1 853 tsd-c7025286ebbc
  1 854 tsd-c7025286ebbc
  1 855 tsd-c7025286ebbc
  1 856 tsd-c7025286ebbc
  1 857 tsd-c7025286ebbc
  1 873 tsd-c7025286ebbc
  1 879 tsd-c7025286ebbc
  1 881 tsd-c7025286ebbc
  1 892 tsd-c7025286ebbc
  1 893 tsd-c7025286ebbc
  1 911 tsd-c7025286ebbc
  1 912 tsd-c7025286ebbc
  1 913 tsd-c7025286ebbc
  1 922 tsd-c7025286ebbc
  1 923 tsd-c7025286ebbc
  1 942 tsd-c7025286ebbc
  1 943 tsd-c7025286ebbc
  1 990 tsd-c7025286ebbc
  1 991 tsd-c7025286ebbc
  1 1014 tsd-c7025286ebbc
  1 1015 tsd-c7025286ebbc
  1 1020 tsd-c7025286ebbc
  1 1021 tsd-c7025286ebbc
  1 1023 tsd-c7025286ebbc
  1 1038 tsd-c7025286ebbc
  1 1040 tsd-c7025286ebbc
  1 1041 tsd-c7025286ebbc
  1 1048 tsd-c7025286ebbc
  1 1049 tsd-c7025286ebbc
  1 1050 tsd-c7025286ebbc
  1 1051 tsd-c7025286ebbc
  1 1070 tsd-c7025286ebbc
  1 1071 tsd-c7025286ebbc
  1 1072 tsd-c7025286ebbc
  1 1073 tsd-c7025286ebbc
  1 1074 tsd-c7025286ebbc
  1 1075 tsd-c7025286ebbc
  1 1082 tsd-c7025286ebbc
  1 1083 tsd-c7025286ebbc
  1 1084 tsd-c7025286ebbc
  1 1085 tsd-c7025286ebbc
  1 1086 tsd-c7025286ebbc
  1 1087 tsd-c7025286ebbc
  1 1108 tsd-c7025286ebbc
  1 1118 tsd-c7025286ebbc
  1 1119 tsd-c7025286ebbc
  1 1120 tsd-c7025286ebbc
  1 1122 tsd-c7025286ebbc
  1 1123 tsd-c7025286ebbc
  1 1196 tsd-c7025286ebbc
  1 1197 tsd-c7025286ebbc
  1 1204 tsd-c7025286ebbc
  1 1205 tsd-c7025286ebbc
  1 1220 tsd-c7025286ebbc
  1 1221 tsd-c7025286ebbc
  1 1222 tsd-c7025286ebbc
  1 1223 tsd-c7025286ebbc
  1 1224 tsd-c7025286ebbc
  1 1225 tsd-c7025286ebbc
  1 1228 tsd-c7025286ebbc
  1 1229 tsd-c7025286ebbc
  1 1232 tsd-c7025286ebbc
  1 1233 tsd-c7025286ebbc
  1 1254 tsd-c7025286ebbc
  1 1255 tsd-c7025286ebbc
  1 1294 tsd-c7025286ebbc
  1 1295 tsd-c7025286ebbc
  1 1296 tsd-c7025286ebbc
  1 1297 tsd-c7025286ebbc
  1 1298 tsd-c7025286ebbc
  1 1299 tsd-c7025286ebbc
  1 1301 tsd-c7025286ebbc
  1 1313 tsd-c7025286ebbc
  1 1318 tsd-c7025286ebbc
  1 1319 tsd-c7025286ebbc
  1 1386 tsd-c7025286ebbc
  1 1387 tsd-c7025286ebbc
  1 1388 tsd-c7025286ebbc
  1 1389 tsd-c7025286ebbc
  1 1390 tsd-c7025286ebbc
  1 1391 tsd-c7025286ebbc
  1 1392 tsd-c7025286ebbc
  1 1393 tsd-c7025286ebbc
  1 1394 tsd-c7025286ebbc
  1 1395 tsd-c7025286ebbc
  1 1396 tsd-c7025286ebbc
  1 1397 tsd-c7025286ebbc
  1 1398 tsd-c7025286ebbc
  1 1399 tsd-c7025286ebbc
  1 1400 tsd-c7025286ebbc
  1 1401 tsd-c7025286ebbc
  1 1402 tsd-c7025286ebbc
  1 1403 tsd-c7025286ebbc
  1 1404 tsd-c7025286ebbc
  1 1406 tsd-c7025286ebbc
  1 1407 tsd-c7025286ebbc
  1 1408 tsd-c7025286ebbc
  1 1409 tsd-c7025286ebbc
  1 1410 tsd-c7025286ebbc
  1 1411 tsd-c7025286ebbc
  1 1412 tsd-c7025286ebbc
  1 1413 tsd-c7025286ebbc
  1 1415 tsd-c7025286ebbc
  1 1437 tsd-c7025286ebbc
  1 1496 tsd-c7025286ebbc
  1 1497 tsd-c7025286ebbc
  1 1498 tsd-c7025286ebbc
  1 1499 tsd-c7025286ebbc
  1 1500 tsd-c7025286ebbc
  1 1501 tsd-c7025286ebbc
  1 1502 tsd-c7025286ebbc
  1 1503 tsd-c7025286ebbc
  1 1504 tsd-c7025286ebbc
  1 1505 tsd-c7025286ebbc
  1 1552 tsd-c7025286ebbc
  1 1553 tsd-c7025286ebbc
  1 1554 tsd-c7025286ebbc
  1 1555 tsd-c7025286ebbc
  1 1556 tsd-c7025286ebbc
  1 1557 tsd-c7025286ebbc
  1 1558 tsd-c7025286ebbc
  1 1559 tsd-c7025286ebbc
  1 1594 tsd-c7025286ebbc
  1 1595 tsd-c7025286ebbc
  1 1596 tsd-c7025286ebbc
  1 1597 tsd-c7025286ebbc
  1 1598 tsd-c7025286ebbc
  1 1600 tsd-c7025286ebbc
  1 1601 tsd-c7025286ebbc
  1 1602 tsd-c7025286ebbc
  1 1603 tsd-c7025286ebbc
  1 1604 tsd-c7025286ebbc
  1 1605 tsd-c7025286ebbc
  1 1606 tsd-c7025286ebbc
  1 1607 tsd-c7025286ebbc
  1 1608 tsd-c7025286ebbc
  1 1609 tsd-c7025286ebbc
  1 1610 tsd-c7025286ebbc
  1 1611 tsd-c7025286ebbc
  1 1612 tsd-c7025286ebbc
  1 1613 tsd-c7025286ebbc
  1 1614 tsd-c7025286ebbc
  1 1615 tsd-c7025286ebbc
  1 1616 tsd-c7025286ebbc
  1 1617 tsd-c7025286ebbc
  1 1618 tsd-c7025286ebbc
  1 1619 tsd-c7025286ebbc
  1 1620 tsd-c7025286ebbc
  1 1621 tsd-c7025286ebbc
  1 1622 tsd-c7025286ebbc
  1 1623 tsd-c7025286ebbc
  1 1624 tsd-c7025286ebbc
  1 1625 tsd-c7025286ebbc
  1 1626 tsd-c7025286ebbc
  1 1627 tsd-c7025286ebbc
  1 1628 tsd-c7025286ebbc
  1 1629 tsd-c7025286ebbc
  1 1630 tsd-c7025286ebbc
  1 1631 tsd-c7025286ebbc
  1 1632 tsd-c7025286ebbc
  1 1634 tsd-c7025286ebbc
  1 1635 tsd-c7025286ebbc
  1 1636 tsd-c7025286ebbc
  1 1637 tsd-c7025286ebbc
  1 1660 tsd-c7025286ebbc
  1 1661 tsd-c7025286ebbc
  1 1662 tsd-c7025286ebbc
  1 1663 tsd-c7025286ebbc
  1 1664 tsd-c7025286ebbc
  1 1665 tsd-c7025286ebbc
  1 1666 tsd-c7025286ebbc
  1 1667 tsd-c7025286ebbc
  1 1668 tsd-c7025286ebbc
  1 1669 tsd-c7025286ebbc
  1 1670 tsd-c7025286ebbc
  1 1671 tsd-c7025286ebbc
  1 1672 tsd-c7025286ebbc
  1 1673 tsd-c7025286ebbc
  1 1674 tsd-c7025286ebbc
  1 1676 tsd-c7025286ebbc
  1 1677 tsd-c7025286ebbc
  1 1678 tsd-c7025286ebbc
  1 1679 tsd-c7025286ebbc
  1 1692 tsd-c7025286ebbc
  1 1693 tsd-c7025286ebbc
  1 1694 tsd-c7025286ebbc
  1 1696 tsd-c7025286ebbc
  1 1697 tsd-c7025286ebbc
  1 1698 tsd-c7025286ebbc
  1 1699 tsd-c7025286ebbc
  1 1700 tsd-c7025286ebbc
  1 1701 tsd-c7025286ebbc
  1 1702 tsd-c7025286ebbc
  1 1703 tsd-c7025286ebbc
  1 1718 tsd-c7025286ebbc
  1 1719 tsd-c7025286ebbc
  1 1720 tsd-c7025286ebbc
  1 1721 tsd-c7025286ebbc
  1 1724 tsd-c7025286ebbc
  1 1725 tsd-c7025286ebbc
  1 1726 tsd-c7025286ebbc
  1 1727 tsd-c7025286ebbc
  1 1729 tsd-c7025286ebbc
  1 1730 tsd-c7025286ebbc
  1 1731 tsd-c7025286ebbc
  1 1732 tsd-c7025286ebbc
  1 1733 tsd-c7025286ebbc
  1 1734 tsd-c7025286ebbc
  1 1735 tsd-c7025286ebbc
  1 1736 tsd-c7025286ebbc
  1 1738 tsd-c7025286ebbc
  1 1740 tsd-c7025286ebbc
  1 1744 tsd-c7025286ebbc
  1 1745 tsd-c7025286ebbc
  1 1746 tsd-c7025286ebbc
  1 1747 tsd-c7025286ebbc
  1 1748 tsd-c7025286ebbc
  1 1749 tsd-c7025286ebbc
  1 1750 tsd-c7025286ebbc
  1 1752 tsd-c7025286ebbc
  1 1753 tsd-c7025286ebbc
  1 1756 tsd-c7025286ebbc
  1 1758 tsd-c7025286ebbc
  1 1759 tsd-c7025286ebbc
  1 1760 tsd-c7025286ebbc
  1 1761 tsd-c7025286ebbc
  1 1762 tsd-c7025286ebbc
  1 1764 tsd-c7025286ebbc
  1 1765 tsd-c7025286ebbc
  1 1766 tsd-c7025286ebbc
  1 1767 tsd-c7025286ebbc
  1 1768 tsd-c7025286ebbc
  1 1769 tsd-c7025286ebbc
  1 1771 tsd-c7025286ebbc
  1 1772 tsd-c7025286ebbc
  1 1773 tsd-c7025286ebbc
  1 1774 tsd-c7025286ebbc
  1 1775 tsd-c7025286ebbc
  1 1777 tsd-c7025286ebbc
  1 1778 tsd-c7025286ebbc
  1 1779 tsd-c7025286ebbc
  1 1780 tsd-c7025286ebbc
  1 1781 tsd-c7025286ebbc
  1 1782 tsd-c7025286ebbc
  1 1783 tsd-c7025286ebbc
  1 1784 tsd-c7025286ebbc
  1 1785 tsd-c7025286ebbc
  1 1788 tsd-c7025286ebbc
  1 1789 tsd-c7025286ebbc
  1 1791 tsd-c7025286ebbc
  1 1792 tsd-c7025286ebbc
  1 1793 tsd-c7025286ebbc
  1 1794 tsd-c7025286ebbc
  1 1795 tsd-c7025286ebbc
  1 1797 tsd-c7025286ebbc
  1 1798 tsd-c7025286ebbc
  1 1800 tsd-c7025286ebbc
  1 1801 tsd-c7025286ebbc
  1 1802 tsd-c7025286ebbc
  1 1803 tsd-c7025286ebbc
  1 1804 tsd-c7025286ebbc
  1 1806 tsd-c7025286ebbc
  1 1807 tsd-c7025286ebbc
  1 1809 tsd-c7025286ebbc
  1 1811 tsd-c7025286ebbc
  1 1812 tsd-c7025286ebbc
  1 1813 tsd-c7025286ebbc
  1 1814 tsd-c7025286ebbc
  1 1815 tsd-c7025286ebbc
  1 1816 tsd-c7025286ebbc
  1 1817 tsd-c7025286ebbc
  1 1818 tsd-c7025286ebbc
  1 1819 tsd-c7025286ebbc
  1 1820 tsd-c7025286ebbc
  1 1821 tsd-c7025286ebbc
  1 1822 tsd-c7025286ebbc
  1 1824 tsd-c7025286ebbc
  1 1828 tsd-c7025286ebbc
  1 1832 tsd-c7025286ebbc
  1 1837 tsd-c7025286ebbc
  1 1844 tsd-c7025286ebbc
  1 1845 tsd-c7025286ebbc
  1 1852 tsd-c7025286ebbc
  1 1853 tsd-c7025286ebbc
  1 1854 tsd-c7025286ebbc
  1 1855 tsd-c7025286ebbc
  1 1883 tsd-c7025286ebbc
  1 1901 tsd-c7025286ebbc
  1 1905 tsd-c7025286ebbc
  1 1920 tsd-c7025286ebbc
  1 1921 tsd-c7025286ebbc
  1 1960 tsd-c7025286ebbc
  1 1961 tsd-c7025286ebbc
  1 1965 tsd-c7025286ebbc
  1 1967 tsd-c7025286ebbc
  1 1969 tsd-c7025286ebbc
  1 1996 tsd-c7025286ebbc
  1 2002 tsd-c7025286ebbc
  1 2003 tsd-c7025286ebbc
  1 2006 tsd-c7025286ebbc
  1 2007 tsd-c7025286ebbc
  1 2072 tsd-c7025286ebbc
  1 2073 tsd-c7025286ebbc
  1 2074 tsd-c7025286ebbc
  1 2075 tsd-c7025286ebbc
  1 2134 tsd-c7025286ebbc
  1 2135 tsd-c7025286ebbc
  1 2174 tsd-c7025286ebbc
  1 2175 tsd-c7025286ebbc
  1 2176 tsd-c7025286ebbc
  1 2177 tsd-c7025286ebbc
  1 2178 tsd-c7025286ebbc
  1 2179 tsd-c7025286ebbc
  1 2182 tsd-c7025286ebbc
  1 2183 tsd-c7025286ebbc
  1 2184 tsd-c7025286ebbc
  1 2185 tsd-c7025286ebbc
  1 2190 tsd-c7025286ebbc
  1 2191 tsd-c7025286ebbc
  1 2192 tsd-c7025286ebbc
  1 2193 tsd-c7025286ebbc
  1 2194 tsd-c7025286ebbc
  1 2195 tsd-c7025286ebbc
  1 2196 tsd-c7025286ebbc
  1 2197 tsd-c7025286ebbc
  1 2198 tsd-c7025286ebbc
  1 2199 tsd-c7025286ebbc
  1 2200 tsd-c7025286ebbc
  1 2201 tsd-c7025286ebbc
  1 2202 tsd-c7025286ebbc
  1 2203 tsd-c7025286ebbc
  1 2214 tsd-c7025286ebbc
  1 2216 tsd-c7025286ebbc
  1 2266 tsd-c7025286ebbc
  1 2299 tsd-c7025286ebbc
  1 2314 tsd-c7025286ebbc
  1 2315 tsd-c7025286ebbc
  1 2433 tsd-c7025286ebbc
  1 2434 tsd-c7025286ebbc
  1 2435 tsd-c7025286ebbc
  1 2436 tsd-c7025286ebbc
  1 2437 tsd-c7025286ebbc
  1 2438 tsd-c7025286ebbc
  1 2439 tsd-c7025286ebbc
  1 2440 tsd-c7025286ebbc
  1 2441 tsd-c7025286ebbc
  1 2442 tsd-c7025286ebbc
  1 2443 tsd-c7025286ebbc
  1 2444 tsd-c7025286ebbc
  1 2445 tsd-c7025286ebbc
  1 2466 tsd-c7025286ebbc
  1 2467 tsd-c7025286ebbc
  1 2468 tsd-c7025286ebbc
  1 2469 tsd-c7025286ebbc
  1 2470 tsd-c7025286ebbc
  1 2471 tsd-c7025286ebbc
  1 2472 tsd-c7025286ebbc
  1 2473 tsd-c7025286ebbc
  1 2474 tsd-c7025286ebbc
  1 2475 tsd-c7025286ebbc
  1 2476 tsd-c7025286ebbc
  1 2477 tsd-c7025286ebbc
  1 2479 tsd-c7025286ebbc
  1 2480 tsd-c7025286ebbc
  1 2481 tsd-c7025286ebbc
  1 2482 tsd-c7025286ebbc
  1 2483 tsd-c7025286ebbc
  1 2496 tsd-c7025286ebbc
  1 2497 tsd-c7025286ebbc
  1 2502 tsd-c7025286ebbc
  1 2503 tsd-c7025286ebbc
  1 2504 tsd-c7025286ebbc
  1 2778 tsd-c7025286ebbc
  1 2779 tsd-c7025286ebbc
  1 2780 tsd-c7025286ebbc
  1 2781 tsd-c7025286ebbc
  1 2782 tsd-c7025286ebbc
  1 2783 tsd-c7025286ebbc
  1 2784 tsd-c7025286ebbc
  1 2785 tsd-c7025286ebbc
  1 2786 tsd-c7025286ebbc
  1 2787 tsd-c7025286ebbc
  1 2788 tsd-c7025286ebbc
  1 2789 tsd-c7025286ebbc
  1 2790 tsd-c7025286ebbc
  1 2791 tsd-c7025286ebbc
  1 2792 tsd-c7025286ebbc
  1 2793 tsd-c7025286ebbc
  1 2794 tsd-c7025286ebbc
  1 2795 tsd-c7025286ebbc
  1 2808 tsd-c7025286ebbc
  1 2809 tsd-c7025286ebbc
  1 2810 tsd-c7025286ebbc
  1 2811 tsd-c7025286ebbc
  1 2812 tsd-c7025286ebbc
  1 2813 tsd-c7025286ebbc
  1 2814 tsd-c7025286ebbc
  1 2815 tsd-c7025286ebbc
  1 2816 tsd-c7025286ebbc
  1 2817 tsd-c7025286ebbc
  1 2818 tsd-c7025286ebbc
  1 2819 tsd-c7025286ebbc
  1 2884 tsd-c7025286ebbc
  1 2885 tsd-c7025286ebbc
  1 2886 tsd-c7025286ebbc
  1 2887 tsd-c7025286ebbc
  1 2890 tsd-c7025286ebbc
  1 2891 tsd-c7025286ebbc
  1 2892 tsd-c7025286ebbc
  1 2893 tsd-c7025286ebbc
  1 2913 tsd-c7025286ebbc
  1 2914 tsd-c7025286ebbc
  1 2916 tsd-c7025286ebbc
  1 2917 tsd-c7025286ebbc
  1 2918 tsd-c7025286ebbc
  1 2919 tsd-c7025286ebbc
  1 2920 tsd-c7025286ebbc
  1 2922 tsd-c7025286ebbc
  1 2924 tsd-c7025286ebbc
  1 2928 tsd-c7025286ebbc
  1 2929 tsd-c7025286ebbc
  1 2930 tsd-c7025286ebbc
  1 2931 tsd-c7025286ebbc
  1 2932 tsd-c7025286ebbc
  1 2933 tsd-c7025286ebbc
  1 2934 tsd-c7025286ebbc
  1 2935 tsd-c7025286ebbc
  1 3052 tsd-c7025286ebbc
  1 3054 tsd-c7025286ebbc
  1 3055 tsd-c7025286ebbc
  1 3056 tsd-c7025286ebbc
  1 3057 tsd-c7025286ebbc
  1 3059 tsd-c7025286ebbc
  1 3060 tsd-c7025286ebbc
  1 3061 tsd-c7025286ebbc
  1 3062 tsd-c7025286ebbc
  1 3063 tsd-c7025286ebbc
  1 3065 tsd-c7025286ebbc
  1 3066 tsd-c7025286ebbc
  1 3067 tsd-c7025286ebbc
  1 3068 tsd-c7025286ebbc
  1 3069 tsd-c7025286ebbc
  1 3070 tsd-c7025286ebbc
  1 3071 tsd-c7025286ebbc
  1 3242 tsd-c7025286ebbc
  1 3243 tsd-c7025286ebbc
  1 3244 tsd-c7025286ebbc
  1 3245 tsd-c7025286ebbc
  1 3246 tsd-c7025286ebbc
  1 3247 tsd-c7025286ebbc
  1 3248 tsd-c7025286ebbc
  1 3255 tsd-c7025286ebbc
  1 3256 tsd-c7025286ebbc
  1 3257 tsd-c7025286ebbc
  1 3258 tsd-c7025286ebbc
  1 3259 tsd-c7025286ebbc
  1 3260 tsd-c7025286ebbc
  1 3261 tsd-c7025286ebbc
  1 3262 tsd-c7025286ebbc
  1 3263 tsd-c7025286ebbc
  1 3267 tsd-c7025286ebbc
  1 3268 tsd-c7025286ebbc
  1 3269 tsd-c7025286ebbc
  1 3292 tsd-c7025286ebbc
  1 3313 tsd-c7025286ebbc
  1 3318 tsd-c7025286ebbc
  1 3320 tsd-c7025286ebbc
  1 3321 tsd-c7025286ebbc
  1 3324 tsd-c7025286ebbc
  1 3325 tsd-c7025286ebbc
  1 3326 tsd-c7025286ebbc
  1 3327 tsd-c7025286ebbc
  1 3328 tsd-c7025286ebbc
  1 3329 tsd-c7025286ebbc
  1 3330 tsd-c7025286ebbc
  1 3331 tsd-c7025286ebbc
  1 3332 tsd-c7025286ebbc
  1 3333 tsd-c7025286ebbc
  1 3334 tsd-c7025286ebbc
  1 3335 tsd-c7025286ebbc
  1 3336 tsd-c7025286ebbc
  1 3337 tsd-c7025286ebbc
  1 3338 tsd-c7025286ebbc
  1 3339 tsd-c7025286ebbc
  1 3340 tsd-c7025286ebbc
  1 3341 tsd-c7025286ebbc
  1 3342 tsd-c7025286ebbc
  1 3343 tsd-c7025286ebbc
  1 3344 tsd-c7025286ebbc
  1 3345 tsd-c7025286ebbc
  1 3610 tsd-c7025286ebbc
  1 3611 tsd-c7025286ebbc
  1 3613 tsd-c7025286ebbc
  1 3614 tsd-c7025286ebbc
  1 3620 tsd-c7025286ebbc
  1 3623 tsd-c7025286ebbc
  1 3628 tsd-c7025286ebbc
  1 3662 tsd-c7025286ebbc
  1 3663 tsd-c7025286ebbc
  1 3664 tsd-c7025286ebbc
  1 3665 tsd-c7025286ebbc
  1 4023 tsd-c7025286ebbc
  1 4025 tsd-c7025286ebbc
  1 4171 tsd-c7025286ebbc
  1 4282 tsd-c7025286ebbc
  1 4283 tsd-c7025286ebbc
  1 4408 tsd-c7025286ebbc
  1 4409 tsd-c7025286ebbc
  1 22 tsd-c7025286ebbc
  1 149 tsd-c7025286ebbc
  1 159 tsd-c7025286ebbc
  1 164 tsd-c7025286ebbc
  1 334 tsd-c7025286ebbc
  1 349 tsd-c7025286ebbc
  1 415 tsd-c7025286ebbc
  1 421 tsd-c7025286ebbc
  1 425 tsd-c7025286ebbc
  1 426 tsd-c7025286ebbc
  1 428 tsd-c7025286ebbc
  1 433 tsd-c7025286ebbc
  1 434 tsd-c7025286ebbc
  1 437 tsd-c7025286ebbc
  1 440 tsd-c7025286ebbc
  1 443 tsd-c7025286ebbc
  1 456 tsd-c7025286ebbc
  1 485 tsd-c7025286ebbc
  1 508 tsd-c7025286ebbc
  1 615 tsd-c7025286ebbc
  1 715 tsd-c7025286ebbc
  1 716 tsd-c7025286ebbc
  1 720 tsd-c7025286ebbc
  1 722 tsd-c7025286ebbc
  1 725 tsd-c7025286ebbc
  1 726 tsd-c7025286ebbc
  1 727 tsd-c7025286ebbc
  1 734 tsd-c7025286ebbc
  1 735 tsd-c7025286ebbc
  1 793 tsd-c7025286ebbc
  1 794 tsd-c7025286ebbc
  1 813 tsd-c7025286ebbc
  1 844 tsd-c7025286ebbc
  1 845 tsd-c7025286ebbc
  1 919 tsd-c7025286ebbc
  1 1065 tsd-c7025286ebbc
  1 1080 tsd-c7025286ebbc
  1 1081 tsd-c7025286ebbc
  1 1103 tsd-c7025286ebbc
  1 1114 tsd-c7025286ebbc
  1 1226 tsd-c7025286ebbc
  1 1227 tsd-c7025286ebbc
  1 1658 tsd-c7025286ebbc
  1 2070 tsd-c7025286ebbc
  1 2132 tsd-c7025286ebbc
  1 2133 tsd-c7025286ebbc
  1 2701 tsd-c7025286ebbc
  1 2702 tsd-c7025286ebbc
  1 2820 tsd-c7025286ebbc
  1 2821 tsd-c7025286ebbc
  1 4376 tsd-c7025286ebbc
  1 4380 tsd-c7025286ebbc
  1 4382 tsd-c7025286ebbc
  1 4383 tsd-c7025286ebbc
  1 4384 tsd-c7025286ebbc
  1 4386 tsd-c7025286ebbc
  1 4387 tsd-c7025286ebbc
  1 431 tsd-c7025286ebbc
  1 736 tsd-c7025286ebbc
  1 761 tsd-c7025286ebbc
  1 787 tsd-c7025286ebbc
  1 788 tsd-c7025286ebbc
  1 811 tsd-c7025286ebbc
  1 863 tsd-c7025286ebbc
  1 6 tsd-c7025286ebbc
  1 23 tsd-c7025286ebbc
  1 38 tsd-c7025286ebbc
  1 75 tsd-c7025286ebbc
  1 79 tsd-c7025286ebbc
  1 80 tsd-c7025286ebbc
  1 82 tsd-c7025286ebbc
  1 85 tsd-c7025286ebbc
  1 86 tsd-c7025286ebbc
  1 87 tsd-c7025286ebbc
  1 89 tsd-c7025286ebbc
  1 92 tsd-c7025286ebbc
  1 94 tsd-c7025286ebbc
  1 96 tsd-c7025286ebbc
  1 128 tsd-c7025286ebbc
  1 175 tsd-c7025286ebbc
  1 200 tsd-c7025286ebbc
  1 205 tsd-c7025286ebbc
  1 206 tsd-c7025286ebbc
  1 210 tsd-c7025286ebbc
  1 212 tsd-c7025286ebbc
  1 241 tsd-c7025286ebbc
  1 244 tsd-c7025286ebbc
  1 246 tsd-c7025286ebbc
  1 250 tsd-c7025286ebbc
  1 260 tsd-c7025286ebbc
  1 261 tsd-c7025286ebbc
  1 264 tsd-c7025286ebbc
  1 270 tsd-c7025286ebbc
  1 272 tsd-c7025286ebbc
  1 274 tsd-c7025286ebbc
  1 278 tsd-c7025286ebbc
  1 291 tsd-c7025286ebbc
  1 300 tsd-c7025286ebbc
  1 302 tsd-c7025286ebbc
  1 305 tsd-c7025286ebbc
  1 306 tsd-c7025286ebbc
  1 309 tsd-c7025286ebbc
  1 310 tsd-c7025286ebbc
  1 312 tsd-c7025286ebbc
  1 326 tsd-c7025286ebbc
  1 359 tsd-c7025286ebbc
  1 360 tsd-c7025286ebbc
  1 365 tsd-c7025286ebbc
  1 366 tsd-c7025286ebbc
  1 367 tsd-c7025286ebbc
  1 372 tsd-c7025286ebbc
  1 374 tsd-c7025286ebbc
  1 376 tsd-c7025286ebbc
  1 379 tsd-c7025286ebbc
  1 380 tsd-c7025286ebbc
  1 389 tsd-c7025286ebbc
  1 391 tsd-c7025286ebbc
  1 393 tsd-c7025286ebbc
  1 408 tsd-c7025286ebbc
  1 432 tsd-c7025286ebbc
  1 435 tsd-c7025286ebbc
  1 442 tsd-c7025286ebbc
  1 445 tsd-c7025286ebbc
  1 447 tsd-c7025286ebbc
  1 449 tsd-c7025286ebbc
  1 452 tsd-c7025286ebbc
  1 463 tsd-c7025286ebbc
  1 471 tsd-c7025286ebbc
  1 473 tsd-c7025286ebbc
  1 475 tsd-c7025286ebbc
  1 479 tsd-c7025286ebbc
  1 483 tsd-c7025286ebbc
  1 484 tsd-c7025286ebbc
  1 487 tsd-c7025286ebbc
  1 488 tsd-c7025286ebbc
  1 490 tsd-c7025286ebbc
  1 491 tsd-c7025286ebbc
  1 492 tsd-c7025286ebbc
  1 493 tsd-c7025286ebbc
  1 494 tsd-c7025286ebbc
  1 495 tsd-c7025286ebbc
  1 497 tsd-c7025286ebbc
  1 499 tsd-c7025286ebbc
  1 502 tsd-c7025286ebbc
  1 503 tsd-c7025286ebbc
  1 506 tsd-c7025286ebbc
  1 507 tsd-c7025286ebbc
  1 510 tsd-c7025286ebbc
  1 514 tsd-c7025286ebbc
  1 517 tsd-c7025286ebbc
  1 519 tsd-c7025286ebbc
  1 520 tsd-c7025286ebbc
  1 521 tsd-c7025286ebbc
  1 526 tsd-c7025286ebbc
  1 529 tsd-c7025286ebbc
  1 551 tsd-c7025286ebbc
  1 561 tsd-c7025286ebbc
  1 562 tsd-c7025286ebbc
  1 565 tsd-c7025286ebbc
  1 566 tsd-c7025286ebbc
  1 568 tsd-c7025286ebbc
  1 571 tsd-c7025286ebbc
  1 572 tsd-c7025286ebbc
  1 573 tsd-c7025286ebbc
  1 574 tsd-c7025286ebbc
  1 575 tsd-c7025286ebbc
  1 577 tsd-c7025286ebbc
  1 583 tsd-c7025286ebbc
  1 585 tsd-c7025286ebbc
  1 586 tsd-c7025286ebbc
  1 589 tsd-c7025286ebbc
  1 590 tsd-c7025286ebbc
  1 591 tsd-c7025286ebbc
  1 592 tsd-c7025286ebbc
  1 595 tsd-c7025286ebbc
  1 596 tsd-c7025286ebbc
  1 597 tsd-c7025286ebbc
  1 599 tsd-c7025286ebbc
  1 602 tsd-c7025286ebbc
  1 604 tsd-c7025286ebbc
  1 606 tsd-c7025286ebbc
  1 608 tsd-c7025286ebbc
  1 610 tsd-c7025286ebbc
  1 612 tsd-c7025286ebbc
  1 619 tsd-c7025286ebbc
  1 637 tsd-c7025286ebbc
  1 643 tsd-c7025286ebbc
  1 644 tsd-c7025286ebbc
  1 657 tsd-c7025286ebbc
  1 665 tsd-c7025286ebbc
  1 668 tsd-c7025286ebbc
  1 685 tsd-c7025286ebbc
  1 711 tsd-c7025286ebbc
  1 713 tsd-c7025286ebbc
  1 714 tsd-c7025286ebbc
  1 717 tsd-c7025286ebbc
  1 718 tsd-c7025286ebbc
  1 721 tsd-c7025286ebbc
  1 723 tsd-c7025286ebbc
  1 724 tsd-c7025286ebbc
  1 728 tsd-c7025286ebbc
  1 730 tsd-c7025286ebbc
  1 732 tsd-c7025286ebbc
  1 733 tsd-c7025286ebbc
  1 737 tsd-c7025286ebbc
  1 738 tsd-c7025286ebbc
  1 741 tsd-c7025286ebbc
  1 742 tsd-c7025286ebbc
  1 745 tsd-c7025286ebbc
  1 747 tsd-c7025286ebbc
  1 748 tsd-c7025286ebbc
  1 752 tsd-c7025286ebbc
  1 754 tsd-c7025286ebbc
  1 756 tsd-c7025286ebbc
  1 757 tsd-c7025286ebbc
  1 760 tsd-c7025286ebbc
  1 767 tsd-c7025286ebbc
  1 777 tsd-c7025286ebbc
  1 780 tsd-c7025286ebbc
  1 785 tsd-c7025286ebbc
  1 795 tsd-c7025286ebbc
  1 804 tsd-c7025286ebbc
  1 814 tsd-c7025286ebbc
  1 815 tsd-c7025286ebbc
  1 819 tsd-c7025286ebbc
  1 820 tsd-c7025286ebbc
  1 828 tsd-c7025286ebbc
  1 830 tsd-c7025286ebbc
  1 831 tsd-c7025286ebbc
  1 832 tsd-c7025286ebbc
  1 833 tsd-c7025286ebbc
  1 834 tsd-c7025286ebbc
  1 835 tsd-c7025286ebbc
  1 860 tsd-c7025286ebbc
  1 861 tsd-c7025286ebbc
  1 862 tsd-c7025286ebbc
  1 878 tsd-c7025286ebbc
  1 880 tsd-c7025286ebbc
  1 886 tsd-c7025286ebbc
  1 887 tsd-c7025286ebbc
  1 896 tsd-c7025286ebbc
  1 897 tsd-c7025286ebbc
  1 900 tsd-c7025286ebbc
  1 901 tsd-c7025286ebbc
  1 902 tsd-c7025286ebbc
  1 903 tsd-c7025286ebbc
  1 910 tsd-c7025286ebbc
  1 924 tsd-c7025286ebbc
  1 925 tsd-c7025286ebbc
  1 932 tsd-c7025286ebbc
  1 933 tsd-c7025286ebbc
  1 944 tsd-c7025286ebbc
  1 945 tsd-c7025286ebbc
  1 986 tsd-c7025286ebbc
  1 987 tsd-c7025286ebbc
  1 988 tsd-c7025286ebbc
  1 989 tsd-c7025286ebbc
  1 992 tsd-c7025286ebbc
  1 993 tsd-c7025286ebbc
  1 1034 tsd-c7025286ebbc
  1 1035 tsd-c7025286ebbc
  1 1036 tsd-c7025286ebbc
  1 1037 tsd-c7025286ebbc
  1 1039 tsd-c7025286ebbc
  1 1044 tsd-c7025286ebbc
  1 1045 tsd-c7025286ebbc
  1 1046 tsd-c7025286ebbc
  1 1047 tsd-c7025286ebbc
  1 1068 tsd-c7025286ebbc
  1 1069 tsd-c7025286ebbc
  1 1076 tsd-c7025286ebbc
  1 1077 tsd-c7025286ebbc
  1 1090 tsd-c7025286ebbc
  1 1091 tsd-c7025286ebbc
  1 1092 tsd-c7025286ebbc
  1 1093 tsd-c7025286ebbc
  1 1104 tsd-c7025286ebbc
  1 1105 tsd-c7025286ebbc
  1 1106 tsd-c7025286ebbc
  1 1107 tsd-c7025286ebbc
  1 1110 tsd-c7025286ebbc
  1 1121 tsd-c7025286ebbc
  1 1124 tsd-c7025286ebbc
  1 1125 tsd-c7025286ebbc
  1 1126 tsd-c7025286ebbc
  1 1127 tsd-c7025286ebbc
  1 1128 tsd-c7025286ebbc
  1 1129 tsd-c7025286ebbc
  1 1130 tsd-c7025286ebbc
  1 1131 tsd-c7025286ebbc
  1 1132 tsd-c7025286ebbc
  1 1133 tsd-c7025286ebbc
  1 1134 tsd-c7025286ebbc
  1 1135 tsd-c7025286ebbc
  1 1136 tsd-c7025286ebbc
  1 1137 tsd-c7025286ebbc
  1 1138 tsd-c7025286ebbc
  1 1139 tsd-c7025286ebbc
  1 1140 tsd-c7025286ebbc
  1 1141 tsd-c7025286ebbc
  1 1142 tsd-c7025286ebbc
  1 1143 tsd-c7025286ebbc
  1 1176 tsd-c7025286ebbc
  1 1177 tsd-c7025286ebbc
  1 1206 tsd-c7025286ebbc
  1 1207 tsd-c7025286ebbc
  1 1238 tsd-c7025286ebbc
  1 1244 tsd-c7025286ebbc
  1 1245 tsd-c7025286ebbc
  1 1246 tsd-c7025286ebbc
  1 1247 tsd-c7025286ebbc
  1 1248 tsd-c7025286ebbc
  1 1249 tsd-c7025286ebbc
  1 1256 tsd-c7025286ebbc
  1 1257 tsd-c7025286ebbc
  1 1288 tsd-c7025286ebbc
  1 1289 tsd-c7025286ebbc
  1 1306 tsd-c7025286ebbc
  1 1307 tsd-c7025286ebbc
  1 1308 tsd-c7025286ebbc
  1 1309 tsd-c7025286ebbc
  1 1310 tsd-c7025286ebbc
  1 1311 tsd-c7025286ebbc
  1 1312 tsd-c7025286ebbc
  1 1314 tsd-c7025286ebbc
  1 1315 tsd-c7025286ebbc
  1 1316 tsd-c7025286ebbc
  1 1317 tsd-c7025286ebbc
  1 1366 tsd-c7025286ebbc
  1 1368 tsd-c7025286ebbc
  1 1376 tsd-c7025286ebbc
  1 1377 tsd-c7025286ebbc
  1 1422 tsd-c7025286ebbc
  1 1423 tsd-c7025286ebbc
  1 1468 tsd-c7025286ebbc
  1 1474 tsd-c7025286ebbc
  1 1475 tsd-c7025286ebbc
  1 1476 tsd-c7025286ebbc
  1 1477 tsd-c7025286ebbc
  1 1542 tsd-c7025286ebbc
  1 1543 tsd-c7025286ebbc
  1 1544 tsd-c7025286ebbc
  1 1545 tsd-c7025286ebbc
  1 1546 tsd-c7025286ebbc
  1 1547 tsd-c7025286ebbc
  1 1548 tsd-c7025286ebbc
  1 1549 tsd-c7025286ebbc
  1 1633 tsd-c7025286ebbc
  1 1675 tsd-c7025286ebbc
  1 1728 tsd-c7025286ebbc
  1 1737 tsd-c7025286ebbc
  1 1739 tsd-c7025286ebbc
  1 1741 tsd-c7025286ebbc
  1 1763 tsd-c7025286ebbc
  1 1770 tsd-c7025286ebbc
  1 1808 tsd-c7025286ebbc
  1 1810 tsd-c7025286ebbc
  1 1836 tsd-c7025286ebbc
  1 1838 tsd-c7025286ebbc
  1 1839 tsd-c7025286ebbc
  1 1840 tsd-c7025286ebbc
  1 1841 tsd-c7025286ebbc
  1 1843 tsd-c7025286ebbc
  1 1848 tsd-c7025286ebbc
  1 1849 tsd-c7025286ebbc
  1 1850 tsd-c7025286ebbc
  1 1851 tsd-c7025286ebbc
  1 1856 tsd-c7025286ebbc
  1 1858 tsd-c7025286ebbc
  1 1859 tsd-c7025286ebbc
  1 1864 tsd-c7025286ebbc
  1 1865 tsd-c7025286ebbc
  1 1866 tsd-c7025286ebbc
  1 1867 tsd-c7025286ebbc
  1 1868 tsd-c7025286ebbc
  1 1869 tsd-c7025286ebbc
  1 1870 tsd-c7025286ebbc
  1 1871 tsd-c7025286ebbc
  1 1872 tsd-c7025286ebbc
  1 1873 tsd-c7025286ebbc
  1 1874 tsd-c7025286ebbc
  1 1875 tsd-c7025286ebbc
  1 1876 tsd-c7025286ebbc
  1 1877 tsd-c7025286ebbc
  1 1878 tsd-c7025286ebbc
  1 1879 tsd-c7025286ebbc
  1 1880 tsd-c7025286ebbc
  1 1881 tsd-c7025286ebbc
  1 1882 tsd-c7025286ebbc
  1 1884 tsd-c7025286ebbc
  1 1885 tsd-c7025286ebbc
  1 1886 tsd-c7025286ebbc
  1 1887 tsd-c7025286ebbc
  1 1888 tsd-c7025286ebbc
  1 1889 tsd-c7025286ebbc
  1 1890 tsd-c7025286ebbc
  1 1891 tsd-c7025286ebbc
  1 1892 tsd-c7025286ebbc
  1 1893 tsd-c7025286ebbc
  1 1894 tsd-c7025286ebbc
  1 1895 tsd-c7025286ebbc
  1 1896 tsd-c7025286ebbc
  1 1897 tsd-c7025286ebbc
  1 1898 tsd-c7025286ebbc
  1 1899 tsd-c7025286ebbc
  1 1900 tsd-c7025286ebbc
  1 1902 tsd-c7025286ebbc
  1 1903 tsd-c7025286ebbc
  1 1904 tsd-c7025286ebbc
  1 1906 tsd-c7025286ebbc
  1 1907 tsd-c7025286ebbc
  1 1908 tsd-c7025286ebbc
  1 1909 tsd-c7025286ebbc
  1 1915 tsd-c7025286ebbc
  1 1916 tsd-c7025286ebbc
  1 1917 tsd-c7025286ebbc
  1 1922 tsd-c7025286ebbc
  1 1923 tsd-c7025286ebbc
  1 1995 tsd-c7025286ebbc
  1 1997 tsd-c7025286ebbc
  1 1998 tsd-c7025286ebbc
  1 1999 tsd-c7025286ebbc
  1 2004 tsd-c7025286ebbc
  1 2005 tsd-c7025286ebbc
  1 2463 tsd-c7025286ebbc
  1 2478 tsd-c7025286ebbc
  1 2484 tsd-c7025286ebbc
  1 2485 tsd-c7025286ebbc
  1 2486 tsd-c7025286ebbc
  1 2487 tsd-c7025286ebbc
  1 2488 tsd-c7025286ebbc
  1 2489 tsd-c7025286ebbc
  1 2490 tsd-c7025286ebbc
  1 2491 tsd-c7025286ebbc
  1 2492 tsd-c7025286ebbc
  1 2493 tsd-c7025286ebbc
  1 2494 tsd-c7025286ebbc
  1 2495 tsd-c7025286ebbc
  1 2498 tsd-c7025286ebbc
  1 2499 tsd-c7025286ebbc
  1 2500 tsd-c7025286ebbc
  1 2501 tsd-c7025286ebbc
  1 2505 tsd-c7025286ebbc
  1 2506 tsd-c7025286ebbc
  1 2507 tsd-c7025286ebbc
  1 3033 tsd-c7025286ebbc
  1 3034 tsd-c7025286ebbc
  1 3035 tsd-c7025286ebbc
  1 3036 tsd-c7025286ebbc
  1 3037 tsd-c7025286ebbc
  1 3038 tsd-c7025286ebbc
  1 3039 tsd-c7025286ebbc
  1 3045 tsd-c7025286ebbc
  1 3046 tsd-c7025286ebbc
  1 3047 tsd-c7025286ebbc
  1 3048 tsd-c7025286ebbc
  1 3049 tsd-c7025286ebbc
  1 3050 tsd-c7025286ebbc
  1 3051 tsd-c7025286ebbc
  1 3053 tsd-c7025286ebbc
  1 3058 tsd-c7025286ebbc
  1 3064 tsd-c7025286ebbc
  1 3249 tsd-c7025286ebbc
  1 3250 tsd-c7025286ebbc
  1 3251 tsd-c7025286ebbc
  1 3252 tsd-c7025286ebbc
  1 3253 tsd-c7025286ebbc
  1 3254 tsd-c7025286ebbc
  1 3264 tsd-c7025286ebbc
  1 3265 tsd-c7025286ebbc
  1 3266 tsd-c7025286ebbc
  1 3388 tsd-c7025286ebbc
  1 3389 tsd-c7025286ebbc
  1 3390 tsd-c7025286ebbc
  1 3391 tsd-c7025286ebbc
  1 3392 tsd-c7025286ebbc
  1 3393 tsd-c7025286ebbc
  1 3394 tsd-c7025286ebbc
  1 3397 tsd-c7025286ebbc
  1 3398 tsd-c7025286ebbc
  1 3399 tsd-c7025286ebbc
  1 3612 tsd-c7025286ebbc
  1 3615 tsd-c7025286ebbc
  1 3616 tsd-c7025286ebbc
  1 3617 tsd-c7025286ebbc
  1 3618 tsd-c7025286ebbc
  1 3619 tsd-c7025286ebbc
  1 3621 tsd-c7025286ebbc
  1 3622 tsd-c7025286ebbc
  1 3624 tsd-c7025286ebbc
  1 3625 tsd-c7025286ebbc
  1 3626 tsd-c7025286ebbc
  1 3627 tsd-c7025286ebbc
  1 3629 tsd-c7025286ebbc
  1 3630 tsd-c7025286ebbc
  1 3631 tsd-c7025286ebbc
  1 3680 tsd-c7025286ebbc
  1 3681 tsd-c7025286ebbc
  1 3682 tsd-c7025286ebbc
  1 3683 tsd-c7025286ebbc
  1 3684 tsd-c7025286ebbc