# File generated by Flopy version 3.5.0 on 11/06/2024 at 09:56:28.
BEGIN options
  SAVE_FLOWS
  SAVE_SPECIFIC_DISCHARGE
END options

BEGIN griddata
  icelltype  LAYERED
    CONSTANT  0
    CONSTANT  0
    CONSTANT  0
    CONSTANT  0
  k  LAYERED
    INTERNAL  FACTOR  1.0
           1.45861412       1.45861412       1.45861412       1.45861412       1.45861412       2.47631222       1.45861412       1.45861412       1.45861412       1.45861412       1.45861412       0.71751519       0.71751519       1.45861412       1.45861412       0.71751519       1.45861412       1.45861412       0.71751519       1.45861412
           1.45861412       2.47631222       2.47631222       1.45861412       1.45861412       1.45861412       1.45861412       1.45861412       1.45861412       1.45861412       1.45861412       1.45861412       0.71751519       1.45861412       1.45861412       1.45861412       1.45861412       2.47631222       1.45861412       1.45861412
           1.45861412       1.45861412       1.45861412       1.45861412       1.45861412       1.45861412       1.45861412       1.45861412       1.45861412       1.45861412       0.71751519       0.71751519       1.45861412       1.45861412       2.47631222       2.47631222       1.45861412       2.47631222       1.45861412       1.45861412
           2.39973725       2.39973725       2.47631222       1.45861412       2.47631222       1.45861412       1.45861412       2.47631222       1.45861412       2.47631222       1.45861412       2.47631222       1.45861412       1.45861412       2.47631222       2.47631222       1.45861412       1.45861412       2.47631222       2.47631222
           1.45861412       2.47631222       1.45861412       1.45861412       2.47631222       0.71751519       2.47631222       1.45861412       2.47631222       1.45861412       1.45861412       2.47631222       1.45861412       2.47631222       1.45861412       2.47631222       1.45861412       2.47631222       1.45861412       0.71751519
           1.45861412       1.45861412       1.45861412       1.45861412       1.45861412       1.45861412       1.45861412       1.45861412       1.45861412       1.45861412       1.45861412       2.39973725       1.45861412       1.45861412       1.45861412       1.45861412       1.45861412       1.45861412       1.45861412       1.45861412
           1.45861412       1.45861412       1.45861412       1.45861412       1.45861412       1.45861412       1.45861412       0.71751519       2.39973725       1.45861412       2.39973725       1.45861412       1.45861412       2.47631222       1.45861412       1.45861412       1.45861412       1.45861412       1.45861412       2.47631222
           2.39973725       1.45861412       1.45861412       1.45861412       0.71751519       2.39973725       1.45861412       1.45861412       2.47631222       2.39973725       1.45861412       1.45861412       1.45861412       1.45861412       1.45861412       1.45861412       1.45861412       1.45861412       2.47631222       1.45861412
           1.45861412       1.45861412       1.45861412       2.47631222       1.45861412       1.45861412       1.45861412       1.45861412       1.45861412       1.45861412       1.45861412       1.45861412       1.45861412       0.71751519       2.47631222       1.45861412       1.45861412       0.71751519       1.45861412       1.45861412
           1.45861412       1.45861412       1.45861412       0.71751519       0.71751519       1.45861412       1.45861412       1.45861412       1.45861412       1.45861412       2.39973725       1.45861412       2.47631222       1.45861412       0.71751519       0.71751519       2.47631222       1.45861412       2.39973725       2.47631222
           0.71751519       1.45861412       1.45861412       1.45861412       2.47631222       2.47631222       1.45861412       1.45861412       0.71751519       2.47631222       1.45861412       2.47631222       1.45861412       1.45861412       0.71751519       0.71751519       1.45861412       1.45861412       0.71751519       0.71751519
           1.45861412       0.71751519       1.45861412       0.71751519       1.45861412       1.45861412       0.71751519       0.71751519       1.45861412       1.45861412       0.71751519       0.71751519       1.45861412       0.71751519       1.45861412       1.45861412       1.45861412       0.71751519       1.45861412       1.45861412
           1.45861412       1.45861412       1.45861412       1.45861412       1.45861412       1.45861412       1.45861412       0.71751519       1.45861412       1.45861412       1.45861412       1.45861412       1.45861412       1.45861412       1.45861412       1.45861412       0.71751519       1.45861412       1.45861412       0.71751519
           2.47631222       2.39973725       1.45861412       2.47631222       0.71751519       2.39973725       0.71751519       2.39973725       2.39973725       1.45861412       2.39973725       1.45861412       2.39973725       0.71751519       2.39973725       2.39973725       1.45861412       2.47631222       2.39973725       2.39973725
           1.45861412       1.45861412       2.39973725       1.45861412       2.39973725       2.39973725       0.71751519       2.39973725       1.45861412       2.39973725       0.71751519       2.39973725       2.39973725       0.71751519       2.39973725       0.71751519       0.71751519       0.71751519       2.39973725       2.47631222
           1.45861412       0.71751519       2.39973725       2.47631222       0.71751519       0.71751519       2.47631222       2.39973725       2.47631222       0.71751519       2.39973725       0.71751519       2.47631222       2.47631222       0.71751519       0.71751519       0.71751519       2.47631222       2.47631222       2.47631222
           2.47631222       0.71751519       2.47631222       0.71751519       2.39973725       2.47631222       0.71751519       0.71751519       1.45861412       1.45861412       0.71751519       0.71751519       1.45861412       2.47631222       0.71751519       1.45861412       0.71751519       2.47631222       0.71751519       2.39973725
           1.45861412       0.71751519       1.45861412       2.39973725       1.45861412       0.71751519       0.71751519       2.39973725       1.45861412       0.71751519       0.71751519       2.39973725       2.47631222       2.47631222       1.45861412       1.45861412       2.47631222       2.47631222       2.47631222       0.71751519
           2.47631222       0.71751519       2.47631222       2.47631222       2.47631222       2.47631222       2.47631222       2.47631222       1.45861412       2.47631222       2.47631222       0.71751519       2.47631222       2.47631222       2.47631222       2.47631222       2.47631222       2.47631222       2.47631222       2.47631222
           2.47631222       2.47631222       2.39973725       2.47631222       2.47631222       2.47631222       2.47631222       2.47631222       2.47631222       1.45861412       1.45861412       2.47631222       2.47631222       2.47631222       1.45861412       2.47631222       2.47631222       1.45861412       0.71751519       2.47631222
           2.47631222       1.45861412       2.47631222       0.71751519       1.45861412       0.71751519       1.45861412       2.47631222       1.45861412       1.45861412       2.47631222       2.47631222       1.45861412       1.45861412       2.47631222       2.47631222       1.45861412       1.45861412       1.45861412       1.45861412
           2.47631222       1.45861412       1.45861412       2.47631222       2.47631222       2.47631222       1.45861412       2.47631222       1.45861412       2.47631222       0.71751519       0.71751519       2.47631222       2.47631222       2.47631222       1.45861412       1.45861412       1.45861412       1.45861412       2.47631222
           2.47631222       2.47631222       2.47631222       1.45861412       2.47631222       1.45861412       2.47631222       1.45861412       2.47631222       1.45861412       1.45861412       2.47631222       1.45861412       1.45861412       1.45861412       2.47631222       1.45861412       2.39973725       1.45861412       1.45861412
           1.45861412       2.39973725       0.71751519       1.45861412       0.71751519       1.45861412       1.45861412       1.45861412       1.45861412       1.45861412       2.47631222       2.47631222       1.45861412       1.45861412       1.45861412       2.47631222       2.47631222       2.39973725       1.45861412       1.45861412
           1.45861412       1.45861412       2.47631222       2.47631222       2.47631222       1.45861412       2.47631222       2.47631222       1.45861412       2.47631222       0.71751519       0.71751519       2.47631222       2.47631222       2.47631222       1.45861412       2.47631222       1.45861412       2.47631222       0.71751519
           1.45861412       2.47631222       2.47631222       1.45861412       1.45861412       2.47631222       2.47631222       2.47631222       1.45861412       2.47631222       0.71751519       0.71751519       1.45861412       0.71751519       0.71751519       1.45861412       0.71751519       0.71751519       0.71751519       2.47631222
           0.71751519       0.71751519       0.71751519       0.71751519       0.71751519       2.47631222       0.71751519       1.45861412       2.47631222       0.71751519       1.45861412       1.45861412       1.45861412       1.45861412       1.45861412       1.45861412       1.45861412       0.71751519       0.71751519       1.45861412
           0.71751519       1.45861412       1.45861412       0.71751519       1.45861412       1.45861412       1.45861412       1.45861412       1.45861412       0.71751519       0.71751519       1.45861412       0.71751519       1.45861412       0.71751519       1.45861412       1.45861412       1.45861412       2.47631222       2.39973725
           0.71751519       0.71751519       0.71751519       0.71751519       0.71751519       2.47631222       2.47631222       0.71751519       0.71751519       2.39973725       2.47631222       2.47631222       2.47631222       2.47631222       2.47631222       2.39973725       2.47631222       2.39973725       2.47631222       0.71751519
           0.71751519       2.47631222       0.71751519       0.71751519       0.71751519       0.71751519       0.71751519       1.45861412       0.71751519       0.71751519       2.47631222       0.71751519       1.45861412       1.45861412       0.71751519       0.71751519       0.71751519       1.45861412       0.71751519       2.47631222
           0.71751519       0.71751519       1.45861412       0.71751519       1.45861412       0.71751519       2.39973725       2.47631222       0.71751519       2.47631222       1.45861412       0.71751519       1.45861412       1.45861412       2.47631222       1.45861412       1.45861412       1.45861412       1.45861412       1.45861412
           1.45861412       1.45861412       1.45861412       1.45861412       1.45861412       1.45861412       1.45861412       1.45861412       1.45861412       1.45861412       1.45861412       1.45861412       1.45861412       0.71751519       0.71751519       0.71751519       2.47631222       0.71751519       0.71751519       0.71751519
           0.71751519       0.71751519       1.45861412       2.47631222       0.71751519       0.71751519       2.39973725       2.39973725       2.47631222       0.71751519       2.47631222       0.71751519       2.47631222       0.71751519       0.71751519       0.71751519       2.47631222       0.71751519       2.39973725       0.71751519
           0.71751519       0.71751519       0.71751519       1.45861412       2.47631222       0.71751519       0.71751519       0.71751519       0.71751519       1.45861412       0.71751519       0.71751519       1.45861412       1.45861412       0.71751519       0.71751519       1.45861412       0.71751519       1.45861412       0.71751519
           0.71751519       1.45861412       1.45861412       0.71751519       1.45861412       0.71751519       1.45861412       1.45861412       0.71751519       0.71751519       1.45861412       1.45861412       0.71751519       1.45861412       0.71751519       0.71751519       1.45861412       1.45861412       1.45861412       0.71751519
           1.45861412       0.71751519       1.45861412       0.71751519       0.71751519       1.45861412       1.45861412       0.71751519       0.71751519       1.45861412       0.71751519       1.45861412       2.47631222       2.47631222       2.47631222       2.47631222       2.47631222       0.71751519       1.45861412       1.45861412
           2.47631222       1.45861412       0.71751519       0.71751519       2.47631222       2.47631222       1.45861412       2.47631222       1.45861412       2.47631222       1.45861412       2.47631222       2.47631222       2.47631222       2.47631222       0.71751519       0.71751519       0.71751519       0.71751519       1.45861412
           0.71751519       0.71751519       0.71751519       0.71751519       0.71751519       0.71751519       2.47631222       0.71751519       1.45861412       1.45861412       1.45861412       0.71751519       1.45861412       2.47631222       1.45861412       2.47631222       0.71751519       1.45861412       1.45861412       2.47631222
           0.71751519       1.45861412       0.71751519       0.71751519       1.45861412       1.45861412       2.47631222       0.71751519       1.45861412       1.45861412       0.71751519       1.45861412       0.71751519       0.71751519       1.45861412       1.45861412       2.47631222       0.71751519       0.71751519       1.45861412
           2.39973725       0.71751519       0.71751519       1.45861412       2.47631222       0.71751519       0.71751519       0.71751519       2.47631222       1.45861412       0.71751519       0.71751519       2.47631222       2.47631222       0.71751519       2.47631222       0.71751519       0.71751519       1.45861412       1.45861412
           1.45861412       0.71751519       1.45861412       2.47631222       1.45861412       0.71751519       0.71751519       1.45861412       1.45861412       0.71751519       0.71751519       1.45861412       2.47631222       2.47631222       0.71751519       1.45861412       2.47631222       2.47631222       0.71751519       0.71751519
           0.71751519       0.71751519       0.71751519       0.71751519       0.71751519       1.45861412       1.45861412       0.71751519       0.71751519       2.47631222       2.47631222       2.47631222       2.47631222       2.47631222       2.47631222       0.71751519       0.71751519       0.71751519       0.71751519       0.71751519
           0.71751519       1.45861412       0.71751519       2.47631222       2.47631222       0.71751519       0.71751519       2.47631222       2.47631222       0.71751519       0.71751519       0.71751519       0.71751519       0.71751519       0.71751519       0.71751519       0.71751519       1.45861412       1.45861412       2.47631222
           0.71751519       0.71751519       0.71751519       1.45861412       1.45861412       1.45861412       1.45861412       2.39973725       2.39973725       2.39973725       2.47631222       2.39973725       2.47631222       2.47631222       2.47631222       2.47631222       2.47631222       2.47631222       0.71751519       1.45861412
           0.71751519       0.71751519       1.45861412       1.45861412       1.45861412       2.47631222       0.71751519       2.47631222       1.45861412       1.45861412       1.45861412       0.71751519       0.71751519       1.45861412       0.71751519       2.47631222       2.47631222       2.39973725       2.39973725       0.71751519
           0.71751519       0.71751519       0.71751519       2.39973725       2.39973725       2.47631222       2.47631222       2.47631222       2.47631222       2.47631222       0.71751519       0.71751519       0.71751519       1.45861412       1.45861412       1.45861412       1.45861412       2.47631222       2.47631222       1.45861412
           1.45861412       0.71751519       0.71751519       2.47631222       2.47631222       2.47631222       2.47631222       2.47631222       2.39973725       2.47631222       2.47631222       1.45861412       1.45861412       1.45861412       1.45861412       2.47631222       1.45861412       1.45861412       1.45861412       1.45861412
           1.45861412       0.71751519       0.71751519       2.47631222       2.47631222       2.39973725       2.39973725       2.47631222       2.47631222       1.45861412       1.45861412       1.45861412       1.45861412       1.45861412       1.45861412       1.45861412       1.45861412       2.39973725       2.47631222       2.47631222
           2.47631222       2.47631222       2.47631222       2.47631222       2.47631222       2.39973725       2.39973725       1.45861412       1.45861412       1.45861412       1.45861412       1.45861412       1.45861412       1.45861412       1.45861412       1.45861412       1.45861412       1.45861412       1.45861412       2.39973725
           2.47631222       2.39973725       2.39973725       2.47631222       2.47631222       2.47631222       2.47631222       0.71751519       0.71751519       0.71751519       0.71751519       0.71751519       2.47631222       1.45861412       1.45861412       1.45861412       1.45861412       1.45861412       1.45861412       1.45861412
           1.45861412       1.45861412       1.45861412       1.45861412       1.45861412       1.45861412       1.45861412       1.45861412       1.45861412       1.45861412       1.45861412       2.39973725       2.39973725       0.71751519       0.71751519       2.39973725       2.39973725       1.45861412       2.39973725       0.71751519
           0.71751519       2.47631222       0.71751519       2.47631222       2.47631222       2.47631222       2.47631222       2.47631222       2.47631222       2.47631222       2.47631222       2.47631222       2.47631222       2.47631222       2.47631222       2.47631222       2.47631222       0.71751519       2.47631222       0.71751519
           0.71751519       1.45861412       1.45861412       1.45861412       1.45861412       0.71751519       0.71751519       0.71751519       0.71751519       0.71751519       0.71751519       1.45861412       1.45861412       1.45861412       1.45861412       1.45861412       1.45861412       1.45861412       1.45861412       1.45861412
           1.45861412       1.45861412       1.45861412       1.45861412       1.45861412       1.45861412       1.45861412       2.47631222       2.47631222       0.71751519       0.71751519       0.71751519       0.71751519       0.71751519       0.71751519       2.47631222       2.47631222       1.45861412       1.45861412       2.47631222
           2.47631222       0.71751519       0.71751519       0.71751519       0.71751519       0.71751519       0.71751519       1.45861412       1.45861412       2.47631222       2.47631222       2.47631222       2.47631222       0.71751519       0.71751519       1.45861412       1.45861412       1.45861412       1.45861412       1.45861412
           1.45861412       1.45861412       2.47631222       2.47631222       2.47631222       1.45861412       2.47631222       0.71751519       1.45861412       1.45861412       1.45861412       1.45861412       1.45861412       2.47631222       2.47631222       2.47631222       2.47631222       0.71751519       0.71751519       0.71751519
           0.71751519       0.71751519       0.71751519       2.47631222       2.47631222       2.47631222       2.47631222       2.47631222       2.47631222       2.47631222       2.47631222       2.47631222       2.47631222       2.47631222       0.71751519       2.47631222       2.47631222       2.47631222       2.47631222       2.47631222
           2.47631222       2.47631222       2.47631222       1.45861412       1.45861412       1.45861412       1.45861412       1.45861412       1.45861412       1.45861412       1.45861412       1.45861412       1.45861412       2.47631222       2.47631222       2.47631222       2.47631222       2.47631222       2.47631222       2.47631222
           2.47631222       2.47631222       2.47631222       1.45861412       1.45861412       1.45861412       1.45861412       1.45861412       1.45861412       2.47631222       2.47631222       2.39973725       2.47631222       1.45861412       0.71751519       0.71751519       2.47631222       1.45861412       1.45861412       1.45861412
           1.45861412       1.45861412       1.45861412       1.45861412       1.45861412       1.45861412       1.45861412       1.45861412       1.45861412       1.45861412       1.45861412       1.45861412       1.45861412       2.39973725       2.39973725       2.47631222       0.71751519       2.47631222       2.47631222       2.39973725
           2.47631222       2.47631222       2.47631222       0.71751519       0.71751519       2.47631222       2.47631222       1.45861412       1.45861412       1.45861412       1.45861412       1.45861412       1.45861412       1.45861412       1.45861412       1.45861412       1.45861412       1.45861412       1.45861412       0.71751519
           0.71751519       0.71751519       0.71751519       0.71751519       0.71751519       2.47631222       2.47631222       0.71751519       0.71751519       2.47631222       0.71751519       0.71751519       0.71751519       0.71751519       0.71751519       0.71751519       0.71751519       0.71751519       0.71751519       1.45861412
           1.45861412       1.45861412       1.45861412       2.47631222       2.47631222       1.45861412       1.45861412       1.45861412       1.45861412       1.45861412       1.45861412       2.47631222       2.47631222       0.71751519       0.71751519       2.47631222       2.47631222       1.45861412       1.45861412       1.45861412
           1.45861412       1.45861412       1.45861412       1.45861412       1.45861412       1.45861412       1.45861412       2.47631222       2.47631222       2.39973725       2.39973725       2.47631222       2.47631222       2.47631222       2.47631222       1.45861412       1.45861412       1.45861412       1.45861412       1.45861412
           1.45861412       1.45861412       1.45861412       1.45861412       1.45861412       1.45861412       1.45861412       2.47631222       2.47631222       1.45861412       1.45861412       1.45861412       2.47631222       0.71751519       0.71751519       0.71751519       0.71751519       0.71751519       0.71751519       2.39973725
           0.71751519       1.45861412       1.45861412       1.45861412       1.45861412       2.47631222       2.47631222       2.47631222       2.47631222       2.47631222       2.47631222       2.47631222       0.71751519       2.47631222       2.47631222       2.47631222       2.47631222       0.71751519       0.71751519       1.45861412
           1.45861412       1.45861412       1.45861412       1.45861412       1.45861412       1.45861412       1.45861412       1.45861412       1.45861412       1.45861412       1.45861412       1.45861412       1.45861412       1.45861412       1.45861412       1.45861412       1.45861412       1.45861412       1.45861412       1.45861412
           1.45861412       1.45861412       1.45861412       1.45861412       1.45861412       1.45861412       1.45861412       1.45861412       1.45861412       1.45861412       1.45861412       1.45861412       1.45861412       1.45861412       1.45861412       1.45861412       1.45861412       1.45861412       1.45861412       1.45861412
           1.45861412       2.47631222       2.39973725       1.45861412       1.45861412       1.45861412       1.45861412       1.45861412       1.45861412       1.45861412       1.45861412       1.45861412       1.45861412       1.45861412       1.45861412       2.47631222       2.47631222       1.45861412       1.45861412       1.45861412
           1.45861412       1.45861412       1.45861412       1.45861412       1.45861412       0.71751519       0.71751519       0.71751519       0.71751519       0.71751519       0.71751519       0.71751519       0.71751519       0.71751519       0.71751519       0.71751519       0.71751519       0.71751519       0.71751519       0.71751519
           0.71751519       0.71751519       0.71751519       0.71751519       0.71751519       0.71751519       0.71751519       0.71751519       0.71751519       0.71751519       0.71751519       0.71751519       0.71751519       2.39973725       0.71751519       1.45861412       1.45861412       1.45861412       1.45861412       1.45861412
           1.45861412       2.47631222       2.47631222       1.45861412       1.45861412       1.45861412       1.45861412       1.45861412       1.45861412       1.45861412       1.45861412       1.45861412       1.45861412       1.45861412       1.45861412       1.45861412       0.71751519       1.45861412       1.45861412       1.45861412
           1.45861412       1.45861412       1.45861412       1.45861412       1.45861412       1.45861412       1.45861412       1.45861412       1.45861412       1.45861412       1.45861412       1.45861412       1.45861412       1.45861412       1.45861412       1.45861412       1.45861412       1.45861412       1.45861412       1.45861412
           1.45861412       1.45861412       1.45861412       2.47631222       2.47631222       2.47631222       2.47631222       0.71751519       1.45861412       1.45861412       1.45861412       2.47631222       1.45861412       2.47631222       2.47631222       2.47631222       2.47631222       1.45861412       1.45861412       1.45861412
           1.45861412       1.45861412       1.45861412       1.45861412       1.45861412       1.45861412       1.45861412       1.45861412       1.45861412       1.45861412       1.45861412       1.45861412       1.45861412       1.45861412       2.47631222       0.71751519       0.71751519       0.71751519       0.71751519       0.71751519
           0.71751519       0.71751519       0.71751519       0.71751519       0.71751519       1.45861412       1.45861412       1.45861412       1.45861412       1.45861412       1.45861412       1.45861412       1.45861412       1.45861412       1.45861412       1.45861412       1.45861412       1.45861412       1.45861412       1.45861412
           1.45861412       1.45861412       1.45861412       1.45861412       1.45861412       1.45861412       1.45861412       1.45861412       0.71751519       1.45861412       1.45861412       1.45861412       1.45861412       1.45861412       1.45861412       1.45861412       1.45861412       1.45861412       1.45861412       1.45861412
           1.45861412       2.47631222       2.47631222       2.47631222       2.47631222       2.47631222       2.47631222       2.47631222       2.47631222       1.45861412       2.47631222       0.71751519       0.71751519       0.71751519       0.71751519       0.71751519       0.71751519       0.71751519       0.71751519       1.45861412
           1.45861412       1.45861412       1.45861412       1.45861412       1.45861412       1.45861412       1.45861412       1.45861412       1.45861412       1.45861412       1.45861412       1.45861412       1.45861412       1.45861412       1.45861412       2.47631222       2.47631222       1.45861412       1.45861412       1.45861412
           1.45861412       1.45861412       1.45861412       1.45861412       1.45861412       1.45861412       1.45861412       1.45861412       1.45861412       1.45861412       2.47631222       1.45861412       2.47631222       0.71751519       0.71751519       0.71751519       0.71751519       0.71751519       1.45861412       0.71751519
           0.71751519       0.71751519       0.71751519       0.71751519       0.71751519       0.71751519       0.71751519       0.71751519       0.71751519       0.71751519       0.71751519       0.71751519       0.71751519       0.71751519       0.71751519       0.71751519       0.71751519       0.71751519       0.71751519       0.71751519
           0.71751519       0.71751519       0.71751519       0.71751519       0.71751519       0.71751519       0.71751519       0.71751519       0.71751519       0.71751519       0.71751519       0.71751519       0.71751519       0.71751519       0.71751519       0.71751519       0.71751519       2.47631222       2.47631222       1.45861412
           1.45861412       1.45861412       1.45861412       1.45861412       1.45861412       1.45861412       1.45861412       1.45861412       1.45861412       1.45861412       1.45861412       1.45861412       1.45861412       1.45861412       2.47631222       1.45861412       2.47631222       2.47631222       2.47631222       0.71751519
           0.71751519       0.71751519       0.71751519       0.71751519       0.71751519       0.71751519       0.71751519       0.71751519       0.71751519       0.71751519       0.71751519       0.71751519       0.71751519       0.71751519       0.71751519       0.71751519       0.71751519       0.71751519       0.71751519       1.45861412
           1.45861412       1.45861412       1.45861412       1.45861412       2.47631222       2.47631222       2.47631222       2.47631222       2.47631222       2.47631222       1.45861412       0.71751519       0.71751519       0.71751519       0.71751519       0.71751519       0.71751519       0.71751519       0.71751519       0.71751519
           0.71751519       0.71751519       0.71751519       1.45861412       1.45861412       1.45861412       2.47631222       1.45861412       2.47631222       1.45861412       2.47631222       1.45861412       1.45861412       1.45861412       2.47631222       1.45861412       1.45861412       0.71751519       0.71751519       0.71751519